Network_13R-103/scenario_52/case.raw
0,100.0,33,0,0,60.0
GRID OPTIMIZATION COMPETITION
INPUT DATA FILES ARE RAW ROP INL CON
1,'            ',115.0,1,1,1,1,1.0510264,-5.8170693,1.1,0.9,1.1,0.9
2,'            ',115.0,1,1,1,1,1.0503293,-6.8844096,1.1,0.9,1.1,0.9
3,'            ',115.0,1,1,1,1,1.04257,-1.0836498,1.1,0.9,1.1,0.9
4,'            ',115.0,1,1,1,1,1.0444778,-9.0927952,1.1,0.9,1.1,0.9
5,'            ',115.0,1,1,1,1,1.0445053,-9.0894594,1.1,0.9,1.1,0.9
6,'            ',115.0,1,1,1,1,1.0461046,0.30282154,1.1,0.9,1.1,0.9
7,'            ',115.0,1,1,1,1,1.0474963,0.31373083,1.1,0.9,1.1,0.9
8,'            ',115.0,1,1,1,1,1.0519828,-13.27098,1.1,0.9,1.1,0.9
9,'            ',115.0,1,1,1,1,1.0501261,-12.953947,1.1,0.9,1.1,0.9
10,'            ',115.0,1,1,1,1,1.0481776,-5.726889,1.1,0.9,1.1,0.9
11,'            ',115.0,1,1,1,1,1.0534886,-3.7007629,1.1,0.9,1.1,0.9
12,'            ',230.0,1,1,1,1,1.0479791,-1.9411331,1.1,0.9,1.1,0.9
13,'            ',115.0,1,1,1,1,1.0553842,-2.7071267,1.1,0.9,1.1,0.9
14,'            ',230.0,1,1,1,1,1.0479031,-1.9484613,1.1,0.9,1.1,0.9
15,'            ',230.0,1,1,1,1,1.0482131,-1.9212709,1.1,0.9,1.1,0.9
16,'            ',230.0,1,1,1,1,1.0626761,-11.682713,1.1,0.9,1.1,0.9
17,'            ',115.0,1,1,1,1,1.0637715,-12.132798,1.1,0.9,1.1,0.9
18,'            ',230.0,1,1,1,1,1.062597,-11.694308,1.1,0.9,1.1,0.9
19,'            ',230.0,1,1,1,1,1.0627463,-11.660182,1.1,0.9,1.1,0.9
20,'            ',230.0,1,1,1,1,1.0504525,-10.340274,1.1,0.9,1.1,0.9
21,'            ',115.0,1,1,1,1,1.0609407,-11.5698,1.1,0.9,1.1,0.9
22,'            ',230.0,1,1,1,1,1.0510035,-10.310534,1.1,0.9,1.1,0.9
23,'            ',230.0,1,1,1,1,1.0504525,-10.340274,1.1,0.9,1.1,0.9
24,'            ',115.0,1,1,1,1,1.0409973,-1.3066286,1.1,0.9,1.1,0.9
25,'            ',115.0,1,1,1,1,1.0428889,-1.4146489,1.1,0.9,1.1,0.9
26,'            ',115.0,1,1,1,1,1.0476133,1.9616932,1.1,0.9,1.1,0.9
27,'            ',500.0,1,1,1,1,1.0456781,-2.4141854,1.1,0.9,1.1,0.9
28,'            ',230.0,1,1,1,1,1.0511728,-1.06802,1.1,0.9,1.1,0.9
29,'            ',115.0,1,1,1,1,1.052089,-0.83346988,1.1,0.9,1.1,0.9
30,'            ',500.0,1,1,1,1,1.045396,-2.4372348,1.1,0.9,1.1,0.9
31,'            ',230.0,1,1,1,1,1.050648,-0.8571362,1.1,0.9,1.1,0.9
32,'            ',115.0,1,1,1,1,1.0410222,-1.171988,1.1,0.9,1.1,0.9
33,'            ',115.0,1,1,1,1,1.0408788,-1.1904342,1.1,0.9,1.1,0.9
34,'            ',115.0,1,1,1,1,1.0443789,-13.960129,1.1,0.9,1.1,0.9
35,'            ',115.0,1,1,1,1,1.0526827,-10.885029,1.1,0.9,1.1,0.9
36,'            ',115.0,1,1,1,1,1.0526206,-10.891451,1.1,0.9,1.1,0.9
37,'            ',230.0,1,1,1,1,1.0508464,-9.0619427,1.1,0.9,1.1,0.9
38,'            ',115.0,1,1,1,1,1.0605261,-10.573091,1.1,0.9,1.1,0.9
39,'            ',230.0,1,1,1,1,1.0506455,-9.0755055,1.1,0.9,1.1,0.9
40,'            ',115.0,1,1,1,1,1.0464684,-2.6837999,1.1,0.9,1.1,0.9
41,'            ',115.0,1,1,1,1,1.0415627,-1.1278444,1.1,0.9,1.1,0.9
42,'            ',115.0,1,1,1,1,1.0463351,-2.3202938,1.1,0.9,1.1,0.9
43,'            ',115.0,1,1,1,1,1.0426108,-0.95090071,1.1,0.9,1.1,0.9
44,'            ',115.0,1,1,1,1,1.0482453,-0.92257649,1.1,0.9,1.1,0.9
45,'            ',115.0,1,1,1,1,1.0459356,-0.84580447,1.1,0.9,1.1,0.9
46,'            ',115.0,1,1,1,1,1.0515562,-12.682195,1.1,0.9,1.1,0.9
47,'            ',115.0,1,1,1,1,1.0355,-10.010086,1.1,0.9,1.1,0.9
48,'            ',115.0,1,1,1,1,1.03553,-9.5952875,1.1,0.9,1.1,0.9
49,'            ',115.0,1,1,1,1,1.0390932,0.41498607,1.1,0.9,1.1,0.9
50,'            ',115.0,1,1,1,1,1.0392023,0.41479726,1.1,0.9,1.1,0.9
51,'            ',115.0,1,1,1,1,1.0513172,-3.3176288,1.1,0.9,1.1,0.9
52,'            ',115.0,1,1,1,1,1.0548008,-3.1924379,1.1,0.9,1.1,0.9
53,'            ',115.0,1,1,1,1,1.0549207,-3.1802818,1.1,0.9,1.1,0.9
54,'            ',115.0,1,1,1,1,1.0500558,-3.1738184,1.1,0.9,1.1,0.9
55,'            ',115.0,1,1,1,1,1.0499665,-3.186235,1.1,0.9,1.1,0.9
56,'            ',115.0,1,1,1,1,1.049167,-13.655159,1.1,0.9,1.1,0.9
57,'            ',115.0,1,1,1,1,1.0491276,-13.660448,1.1,0.9,1.1,0.9
58,'            ',115.0,1,1,1,1,1.0534106,-3.2042978,1.1,0.9,1.1,0.9
59,'            ',115.0,1,1,1,1,1.0554215,-3.1891275,1.1,0.9,1.1,0.9
60,'            ',115.0,1,1,1,1,1.0518215,-2.8050279,1.1,0.9,1.1,0.9
61,'            ',115.0,1,1,1,1,1.0517847,-2.8105073,1.1,0.9,1.1,0.9
62,'            ',115.0,1,1,1,1,1.0399159,-10.988857,1.1,0.9,1.1,0.9
63,'            ',230.0,1,1,1,1,1.0398437,-1.5243597,1.1,0.9,1.1,0.9
64,'            ',115.0,1,1,1,1,1.0605086,-2.8905484,1.1,0.9,1.1,0.9
65,'            ',230.0,1,1,1,1,1.0409738,-1.4755747,1.1,0.9,1.1,0.9
66,'            ',230.0,1,1,1,1,1.0396238,-1.5507554,1.1,0.9,1.1,0.9
67,'            ',115.0,1,1,1,1,1.0551759,-2.7252859,1.1,0.9,1.1,0.9
68,'            ',115.0,1,1,1,1,1.0594641,-13.68301,1.1,0.9,1.1,0.9
69,'            ',115.0,1,1,1,1,1.0593959,-13.690252,1.1,0.9,1.1,0.9
70,'            ',115.0,1,1,1,1,1.0601134,-13.385371,1.1,0.9,1.1,0.9
71,'            ',115.0,1,1,1,1,1.0404138,-7.1163934,1.1,0.9,1.1,0.9
72,'            ',230.0,1,1,1,1,1.0441405,-5.3723318,1.1,0.9,1.1,0.9
73,'            ',115.0,1,1,1,1,1.0448632,-5.7978396,1.1,0.9,1.1,0.9
74,'            ',230.0,1,1,1,1,1.0440952,-5.3819923,1.1,0.9,1.1,0.9
75,'            ',230.0,1,1,1,1,1.0447144,-5.3384726,1.1,0.9,1.1,0.9
76,'            ',115.0,1,1,1,1,1.0512585,-3.0026213,1.1,0.9,1.1,0.9
77,'            ',115.0,1,1,1,1,1.0490253,-2.544643,1.1,0.9,1.1,0.9
78,'            ',115.0,1,1,1,1,1.059227,-14.917933,1.1,0.9,1.1,0.9
79,'            ',230.0,1,1,1,1,1.0401292,-10.026982,1.1,0.9,1.1,0.9
80,'            ',115.0,1,1,1,1,1.0530432,-10.912987,1.1,0.9,1.1,0.9
81,'            ',230.0,1,1,1,1,1.0410489,-9.9743133,1.1,0.9,1.1,0.9
82,'            ',230.0,1,1,1,1,1.039868,-10.069447,1.1,0.9,1.1,0.9
83,'            ',115.0,1,1,1,1,1.0398142,-11.27623,1.1,0.9,1.1,0.9
84,'            ',115.0,1,1,1,1,1.039579,-11.295551,1.1,0.9,1.1,0.9
85,'            ',115.0,1,1,1,1,1.0400252,-11.256437,1.1,0.9,1.1,0.9
86,'            ',115.0,1,1,1,1,1.0478582,0.47763963,1.1,0.9,1.1,0.9
87,'            ',115.0,1,1,1,1,1.037554,-11.049617,1.1,0.9,1.1,0.9
88,'            ',115.0,1,1,1,1,1.0371839,-11.066841,1.1,0.9,1.1,0.9
89,'            ',115.0,1,1,1,1,1.0367689,-11.238894,1.1,0.9,1.1,0.9
90,'            ',115.0,1,1,1,1,1.0366001,-11.252854,1.1,0.9,1.1,0.9
91,'            ',500.0,1,1,1,1,1.0486517,-8.870306,1.1,0.9,1.1,0.9
92,'            ',230.0,1,1,1,1,1.050499,-9.1516534,1.1,0.9,1.1,0.9
93,'            ',115.0,1,1,1,1,1.0519081,-10.234381,1.1,0.9,1.1,0.9
94,'            ',500.0,1,1,1,1,1.0483745,-8.8984549,1.1,0.9,1.1,0.9
95,'            ',500.0,1,1,1,1,1.05152,-8.8285832,1.1,0.9,1.1,0.9
96,'            ',115.0,1,1,1,1,1.0515409,-13.587445,1.1,0.9,1.1,0.9
97,'            ',115.0,1,1,1,1,1.0514511,-15.180918,1.1,0.9,1.1,0.9
98,'            ',115.0,1,1,1,1,1.043644,-15.892709,1.1,0.9,1.1,0.9
99,'            ',115.0,1,1,1,1,1.0494126,-15.219705,1.1,0.9,1.1,0.9
100,'            ',115.0,1,1,1,1,1.0493344,-15.228707,1.1,0.9,1.1,0.9
101,'            ',115.0,1,1,1,1,1.047971,-10.940871,1.1,0.9,1.1,0.9
102,'            ',115.0,1,1,1,1,1.04945,-10.931726,1.1,0.9,1.1,0.9
103,'            ',115.0,1,1,1,1,1.0493666,-10.945355,1.1,0.9,1.1,0.9
104,'            ',115.0,1,1,1,1,1.0528825,-13.565047,1.1,0.9,1.1,0.9
105,'            ',115.0,1,1,1,1,1.0500849,-14.638435,1.1,0.9,1.1,0.9
106,'            ',115.0,1,1,1,1,1.0496535,-14.663774,1.1,0.9,1.1,0.9
107,'            ',230.0,1,1,1,1,1.0355532,-12.768989,1.1,0.9,1.1,0.9
108,'            ',115.0,1,1,1,1,1.0546673,-14.196139,1.1,0.9,1.1,0.9
109,'            ',230.0,1,1,1,1,1.0353319,-12.802746,1.1,0.9,1.1,0.9
110,'            ',230.0,1,1,1,1,1.0367605,-12.708137,1.1,0.9,1.1,0.9
111,'            ',115.0,1,1,1,1,1.0515932,-14.382412,1.1,0.9,1.1,0.9
112,'            ',115.0,1,1,1,1,1.0514615,-14.392964,1.1,0.9,1.1,0.9
113,'            ',115.0,1,1,1,1,1.0484725,-14.180128,1.1,0.9,1.1,0.9
114,'            ',115.0,1,1,1,1,1.038107,-11.053042,1.1,0.9,1.1,0.9
115,'            ',230.0,1,1,1,1,1.0486518,-9.0116451,1.1,0.9,1.1,0.9
116,'            ',115.0,1,1,1,1,1.0535891,-10.643228,1.1,0.9,1.1,0.9
117,'            ',230.0,1,1,1,1,1.049044,-8.9849844,1.1,0.9,1.1,0.9
118,'            ',230.0,1,1,1,1,1.0486518,-9.0116451,1.1,0.9,1.1,0.9
119,'            ',115.0,1,1,1,1,1.033018,-11.203905,1.1,0.9,1.1,0.9
120,'            ',115.0,1,1,1,1,1.0303877,-10.819755,1.1,0.9,1.1,0.9
121,'            ',115.0,1,1,1,1,1.0302215,-10.833568,1.1,0.9,1.1,0.9
122,'            ',115.0,1,1,1,1,1.0547494,-1.4795467,1.1,0.9,1.1,0.9
123,'            ',115.0,1,1,1,1,1.0374011,-8.8898052,1.1,0.9,1.1,0.9
124,'            ',115.0,1,1,1,1,1.0559761,-14.843087,1.1,0.9,1.1,0.9
125,'            ',115.0,1,1,1,1,1.0445713,-14.382099,1.1,0.9,1.1,0.9
126,'            ',115.0,1,1,1,1,1.0462937,-11.115424,1.1,0.9,1.1,0.9
127,'            ',115.0,1,1,1,1,1.0477933,-11.245737,1.1,0.9,1.1,0.9
128,'            ',115.0,1,1,1,1,1.0478311,-11.239463,1.1,0.9,1.1,0.9
129,'            ',115.0,1,1,1,1,1.056696,-13.889525,1.1,0.9,1.1,0.9
130,'            ',230.0,1,1,1,1,1.0444282,-13.055423,1.1,0.9,1.1,0.9
131,'            ',115.0,1,1,1,1,1.0594114,-14.787064,1.1,0.9,1.1,0.9
132,'            ',230.0,1,1,1,1,1.0453604,-13.033872,1.1,0.9,1.1,0.9
133,'            ',230.0,1,1,1,1,1.0307804,-14.886578,1.1,0.9,1.1,0.9
134,'            ',115.0,1,1,1,1,1.057768,-14.66272,1.1,0.9,1.1,0.9
135,'            ',230.0,1,1,1,1,1.030653,-14.902608,1.1,0.9,1.1,0.9
136,'            ',115.0,1,1,1,1,1.0531636,-14.334221,1.1,0.9,1.1,0.9
137,'            ',115.0,1,1,1,1,1.050582,-14.480937,1.1,0.9,1.1,0.9
138,'            ',115.0,1,1,1,1,1.0506721,-14.472906,1.1,0.9,1.1,0.9
139,'            ',115.0,1,1,1,1,1.0453264,-15.978211,1.1,0.9,1.1,0.9
140,'            ',115.0,1,1,1,1,1.0523525,-14.431462,1.1,0.9,1.1,0.9
141,'            ',115.0,1,1,1,1,1.0452547,-10.191832,1.1,0.9,1.1,0.9
142,'            ',115.0,1,1,1,1,1.0495353,-0.42757715,1.1,0.9,1.1,0.9
143,'            ',115.0,1,1,1,1,1.045852,-0.098447184,1.1,0.9,1.1,0.9
144,'            ',115.0,1,1,1,1,1.0455941,-0.47484158,1.1,0.9,1.1,0.9
145,'            ',115.0,1,1,1,1,1.0455495,-0.48282292,1.1,0.9,1.1,0.9
146,'            ',115.0,1,1,1,1,1.0456396,-0.46632415,1.1,0.9,1.1,0.9
147,'            ',115.0,1,1,1,1,1.0499334,-11.425626,1.1,0.9,1.1,0.9
148,'            ',115.0,1,1,1,1,1.065303,-13.265844,1.1,0.9,1.1,0.9
149,'            ',115.0,1,1,1,1,1.0654185,-13.256711,1.1,0.9,1.1,0.9
150,'            ',115.0,1,1,1,1,1.0548092,-14.876377,1.1,0.9,1.1,0.9
151,'            ',115.0,1,1,1,1,1.0505666,-14.021194,1.1,0.9,1.1,0.9
152,'            ',115.0,1,1,1,1,1.0405649,-7.0154897,1.1,0.9,1.1,0.9
153,'            ',115.0,1,1,1,1,1.0368874,-6.5560751,1.1,0.9,1.1,0.9
154,'            ',115.0,1,1,1,1,1.0520517,-11.330158,1.1,0.9,1.1,0.9
155,'            ',115.0,1,1,1,1,1.050343,-15.780001,1.1,0.9,1.1,0.9
156,'            ',115.0,1,1,1,1,1.0503929,-15.775987,1.1,0.9,1.1,0.9
157,'            ',115.0,1,1,1,1,1.0557625,-15.178402,1.1,0.9,1.1,0.9
158,'            ',115.0,1,1,1,1,1.0513652,-6.3425577,1.1,0.9,1.1,0.9
159,'            ',115.0,1,1,1,1,1.0627339,-13.199535,1.1,0.9,1.1,0.9
160,'            ',230.0,1,1,1,1,1.0564066,-13.35175,1.1,0.9,1.1,0.9
161,'            ',115.0,1,1,1,1,1.0622078,-13.428311,1.1,0.9,1.1,0.9
162,'            ',230.0,1,1,1,1,1.0562814,-13.364984,1.1,0.9,1.1,0.9
163,'            ',230.0,1,1,1,1,1.0565539,-13.339991,1.1,0.9,1.1,0.9
164,'            ',115.0,1,1,1,1,1.0616947,-13.452539,1.1,0.9,1.1,0.9
165,'            ',115.0,1,1,1,1,1.0145266,-20.424585,1.1,0.9,1.1,0.9
166,'            ',115.0,1,1,1,1,1.0146013,-20.413929,1.1,0.9,1.1,0.9
167,'            ',115.0,1,1,1,1,1.0145266,-20.424585,1.1,0.9,1.1,0.9
168,'            ',115.0,1,1,1,1,1.0164572,-19.071276,1.1,0.9,1.1,0.9
169,'            ',115.0,1,1,1,1,1.0179352,-21.325532,1.1,0.9,1.1,0.9
170,'            ',115.0,1,1,1,1,1.0154657,-21.129955,1.1,0.9,1.1,0.9
171,'            ',115.0,1,1,1,1,1.0153628,-21.14025,1.1,0.9,1.1,0.9
172,'            ',230.0,1,1,1,1,1.0032154,-15.927305,1.1,0.9,1.1,0.9
173,'            ',115.0,1,1,1,1,1.0146399,-18.643116,1.1,0.9,1.1,0.9
174,'            ',230.0,1,1,1,1,1.0025964,-15.931826,1.1,0.9,1.1,0.9
175,'            ',115.0,1,1,1,1,1.0446769,-3.6202107,1.1,0.9,1.1,0.9
176,'            ',115.0,1,1,1,1,1.0420252,-1.890987,1.1,0.9,1.1,0.9
177,'            ',115.0,1,1,1,1,1.0419851,-1.8949536,1.1,0.9,1.1,0.9
178,'            ',230.0,1,1,1,1,1.0482968,-15.495196,1.1,0.9,1.1,0.9
179,'            ',115.0,1,1,1,1,1.047985,-15.700695,1.1,0.9,1.1,0.9
180,'            ',230.0,1,1,1,1,1.0483221,-15.490725,1.1,0.9,1.1,0.9
181,'            ',230.0,1,1,1,1,1.0482968,-15.495196,1.1,0.9,1.1,0.9
182,'            ',115.0,1,1,1,1,0.99497332,-11.367318,1.1,0.9,1.1,0.9
183,'            ',115.0,1,1,1,1,0.995,-11.362069,1.1,0.9,1.1,0.9
184,'            ',115.0,1,1,1,1,1.024667,-13.550023,1.1,0.9,1.1,0.9
185,'            ',115.0,1,1,1,1,1.0186998,-10.872325,1.1,0.9,1.1,0.9
186,'            ',115.0,1,1,1,1,1.0155583,-10.862801,1.1,0.9,1.1,0.9
187,'            ',115.0,1,1,1,1,1.0151452,-11.03522,1.1,0.9,1.1,0.9
188,'            ',115.0,1,1,1,1,1.0150306,-11.04504,1.1,0.9,1.1,0.9
189,'            ',115.0,1,1,1,1,1.0565239,-14.939625,1.1,0.9,1.1,0.9
190,'            ',115.0,1,1,1,1,1.0492273,-15.247595,1.1,0.9,1.1,0.9
191,'            ',115.0,1,1,1,1,1.0413332,-6.5575814,1.1,0.9,1.1,0.9
192,'            ',115.0,1,1,1,1,1.0066184,-10.920353,1.1,0.9,1.1,0.9
193,'            ',115.0,1,1,1,1,0.995,-10.716843,1.1,0.9,1.1,0.9
194,'            ',230.0,1,1,1,1,1.0365,-9.5920889,1.1,0.9,1.1,0.9
195,'            ',115.0,1,1,1,1,1.0222121,-10.600062,1.1,0.9,1.1,0.9
196,'            ',230.0,1,1,1,1,1.0358969,-9.4824062,1.1,0.9,1.1,0.9
197,'            ',115.0,1,1,1,1,1.0006861,-11.132078,1.1,0.9,1.1,0.9
198,'            ',230.0,1,1,1,1,1.0120206,-9.9936873,1.1,0.9,1.1,0.9
199,'            ',115.0,1,1,1,1,1.0083226,-10.749211,1.1,0.9,1.1,0.9
200,'            ',230.0,1,1,1,1,1.0118119,-10.012153,1.1,0.9,1.1,0.9
...
0 / END OF BUS DATA BEGIN LOAD DATA
1,'1',1,1,1,14.097,7.952,0.0,0.0,0.0,0.0,1,1,0
2,'1',1,1,1,8.063,3.917,0.0,0.0,0.0,0.0,1,1,0
3,'1',1,1,1,9.476,0.883,0.0,0.0,0.0,0.0,1,1,0
4,'1',1,1,1,6.052,1.455,0.0,0.0,0.0,0.0,1,1,0
6,'1',1,1,1,6.596,3.026,0.0,0.0,0.0,0.0,1,1,0
7,'1',1,1,1,13.188,2.357,0.0,0.0,0.0,0.0,1,1,0
8,'1',1,1,1,17.143,1.096,0.0,0.0,0.0,0.0,1,1,0
9,'1',1,1,1,14.071,6.179,0.0,0.0,0.0,0.0,1,1,0
10,'1',1,1,1,26.316,6.423,0.0,0.0,0.0,0.0,1,1,0
11,'1',1,1,1,7.325,0.429,0.0,0.0,0.0,0.0,1,1,0
14,'1',1,1,1,14.644,4.323,0.0,0.0,0.0,0.0,1,1,0
18,'1',1,1,1,22.273,1.844,0.0,0.0,0.0,0.0,1,1,0
21,'1',1,1,1,40.64,3.263,0.0,0.0,0.0,0.0,1,1,0
24,'1',1,1,1,15.419,5.851,0.0,0.0,0.0,0.0,1,1,0
25,'1',1,1,1,15.823,5.34,0.0,0.0,0.0,0.0,1,1,0
26,'1',1,1,1,6.4,0.908,0.0,0.0,0.0,0.0,1,1,0
30,'1',1,1,1,47.967,15.416,0.0,0.0,0.0,0.0,1,1,0
33,'1',1,1,1,31.375,7.188,0.0,0.0,0.0,0.0,1,1,0
34,'1',1,1,1,13.528,8.354,0.0,0.0,0.0,0.0,1,1,0
36,'1',1,1,1,11.587,3.293,0.0,0.0,0.0,0.0,1,1,0
39,'1',1,1,1,24.823,12.625,0.0,0.0,0.0,0.0,1,1,0
40,'1',1,1,1,15.598,2.883,0.0,0.0,0.0,0.0,1,1,0
41,'1',1,1,1,14.505,4.842,0.0,0.0,0.0,0.0,1,1,0
42,'1',1,1,1,15.598,1.041,0.0,0.0,0.0,0.0,1,1,0
43,'1',1,1,1,17.939,7.001,0.0,0.0,0.0,0.0,1,1,0
44,'1',1,1,1,14.355,3.783,0.0,0.0,0.0,0.0,1,1,0
45,'1',1,1,1,11.325,2.724,0.0,0.0,0.0,0.0,1,1,0
46,'1',1,1,1,17.713,3.974,0.0,0.0,0.0,0.0,1,1,0
47,'1',1,1,1,9.308,1.521,0.0,0.0,0.0,0.0,1,1,0
48,'1',1,1,1,15.466,2.786,0.0,0.0,0.0,0.0,1,1,0
49,'1',1,1,1,1.736,0.609,0.0,0.0,0.0,0.0,1,1,0
51,'1',1,1,1,12.204,3.279,0.0,0.0,0.0,0.0,1,1,0
52,'1',1,1,1,24.408,7.295,0.0,0.0,0.0,0.0,1,1,0
55,'1',1,1,1,23.281,2.907,0.0,0.0,0.0,0.0,1,1,0
57,'1',1,1,1,8.953,1.835,0.0,0.0,0.0,0.0,1,1,0
58,'1',1,1,1,19.038,11.085,0.0,0.0,0.0,0.0,1,1,0
59,'1',1,1,1,17.951,2.018,0.0,0.0,0.0,0.0,1,1,0
60,'1',1,1,1,10.302,5.448,0.0,0.0,0.0,0.0,1,1,0
61,'1',1,1,1,10.302,1.702,0.0,0.0,0.0,0.0,1,1,0
62,'1',1,1,1,28.047,4.963,0.0,0.0,0.0,0.0,1,1,0
66,'1',1,1,1,45.019,8.064,0.0,0.0,0.0,0.0,1,1,0
67,'1',1,1,1,12.753,1.4,0.0,0.0,0.0,0.0,1,1,0
69,'1',1,1,1,14.474,3.33,0.0,0.0,0.0,0.0,1,1,0
70,'1',1,1,1,17.167,5.726,0.0,0.0,0.0,0.0,1,1,0
71,'1',1,1,1,8.616,2.266,0.0,0.0,0.0,0.0,1,1,0
74,'1',1,1,1,17.021,0.746,0.0,0.0,0.0,0.0,1,1,0
76,'1',1,1,1,7.614,1.349,0.0,0.0,0.0,0.0,1,1,0
77,'1',1,1,1,22.287,0.29,0.0,0.0,0.0,0.0,1,1,0
78,'1',1,1,1,4.646,0.799,0.0,0.0,0.0,0.0,1,1,0
82,'1',1,1,1,68.834,6.032,0.0,0.0,0.0,0.0,1,1,0
84,'1',1,1,1,36.097,12.913,0.0,0.0,0.0,0.0,1,1,0
86,'1',1,1,1,3.781,0.914,0.0,0.0,0.0,0.0,1,1,0
88,'1',1,1,1,36.446,27.701,0.0,0.0,0.0,0.0,1,1,0
90,'1',1,1,1,27.953,9.653,0.0,0.0,0.0,0.0,1,1,0
94,'1',1,1,1,48.614,15.966,0.0,0.0,0.0,0.0,1,1,0
96,'1',1,1,1,6.294,2.559,0.0,0.0,0.0,0.0,1,1,0
97,'1',1,1,1,9.345,2.795,0.0,0.0,0.0,0.0,1,1,0
98,'1',1,1,1,20.569,7.732,0.0,0.0,0.0,0.0,1,1,0
100,'1',1,1,1,17.024,4.163,0.0,0.0,0.0,0.0,1,1,0
101,'1',1,1,1,12.189,1.699,0.0,0.0,0.0,0.0,1,1,0
103,'1',1,1,1,22.605,3.358,0.0,0.0,0.0,0.0,1,1,0
104,'1',1,1,1,42.193,4.528,0.0,0.0,0.0,0.0,1,1,0
106,'1',1,1,1,50.596,27.315,0.0,0.0,0.0,0.0,1,1,0
109,'1',1,1,1,63.75,8.071,0.0,0.0,0.0,0.0,1,1,0
111,'1',1,1,1,9.119,2.43,0.0,0.0,0.0,0.0,1,1,0
112,'1',1,1,1,21.089,8.292,0.0,0.0,0.0,0.0,1,1,0
113,'1',1,1,1,66.715,20.271,0.0,0.0,0.0,0.0,1,1,0
114,'1',1,1,1,62.834,22.712,0.0,0.0,0.0,0.0,1,1,0
116,'1',1,1,1,50.941,10.617,0.0,0.0,0.0,0.0,1,1,0
119,'1',1,1,1,14.988,7.045,0.0,0.0,0.0,0.0,1,1,0
121,'1',1,1,1,23.367,10.068,0.0,0.0,0.0,0.0,1,1,0
122,'1',1,1,1,6.284,0.996,0.0,0.0,0.0,0.0,1,1,0
123,'1',1,1,1,6.175,1.821,0.0,0.0,0.0,0.0,1,1,0
124,'1',1,1,1,27.131,6.958,0.0,0.0,0.0,0.0,1,1,0
125,'1',1,1,1,43.883,15.233,0.0,0.0,0.0,0.0,1,1,0
126,'1',1,1,1,23.579,8.501,0.0,0.0,0.0,0.0,1,1,0
127,'1',1,1,1,11.526,1.547,0.0,0.0,0.0,0.0,1,1,0
129,'1',1,1,1,6.965,7.719,0.0,0.0,0.0,0.0,1,1,0
131,'1',1,1,1,46.463,10.161,0.0,0.0,0.0,0.0,1,1,0
135,'1',1,1,1,29.59,5.183,0.0,0.0,0.0,0.0,1,1,0
136,'1',1,1,1,15.107,3.401,0.0,0.0,0.0,0.0,1,1,0
137,'1',1,1,1,13.984,4.511,0.0,0.0,0.0,0.0,1,1,0
139,'1',1,1,1,14.055,4.419,0.0,0.0,0.0,0.0,1,1,0
140,'1',1,1,1,10.658,6.074,0.0,0.0,0.0,0.0,1,1,0
141,'1',1,1,1,11.476,8.09,0.0,0.0,0.0,0.0,1,1,0
142,'1',1,1,1,5.267,3.947,0.0,0.0,0.0,0.0,1,1,0
143,'1',1,1,1,13.337,2.156,0.0,0.0,0.0,0.0,1,1,0
145,'1',1,1,1,14.632,1.223,0.0,0.0,0.0,0.0,1,1,0
147,'1',1,1,1,7.154,0.922,0.0,0.0,0.0,0.0,1,1,0
148,'1',1,1,1,18.479,6.431,0.0,0.0,0.0,0.0,1,1,0
150,'1',1,1,1,3.576,0.306,0.0,0.0,0.0,0.0,1,1,0
151,'1',1,1,1,11.412,2.421,0.0,0.0,0.0,0.0,1,1,0
152,'1',1,1,1,12.408,7.706,0.0,0.0,0.0,0.0,1,1,0
153,'1',1,1,1,7.49,1.758,0.0,0.0,0.0,0.0,1,1,0
154,'1',1,1,1,5.084,1.988,0.0,0.0,0.0,0.0,1,1,0
155,'1',1,1,1,7.746,3.245,0.0,0.0,0.0,0.0,1,1,0
157,'1',1,1,1,6.836,1.084,0.0,0.0,0.0,0.0,1,1,0
158,'1',1,1,1,5.456,2.255,0.0,0.0,0.0,0.0,1,1,0
159,'1',1,1,1,11.585,4.715,0.0,0.0,0.0,0.0,1,1,0
162,'1',1,1,1,22.907,7.069,0.0,0.0,0.0,0.0,1,1,0
164,'1',1,1,1,11.178,3.059,0.0,0.0,0.0,0.0,1,1,0
165,'1',1,1,1,17.662,2.193,0.0,0.0,0.0,0.0,1,1,0
168,'1',1,1,1,17.326,5.898,0.0,0.0,0.0,0.0,1,1,0
169,'1',1,1,1,17.326,5.37,0.0,0.0,0.0,0.0,1,1,0
171,'1',1,1,1,17.55,5.675,0.0,0.0,0.0,0.0,1,1,0
174,'1',1,1,1,17.326,5.809,0.0,0.0,0.0,0.0,1,1,0
175,'1',1,1,1,17.962,4.975,0.0,0.0,0.0,0.0,1,1,0
177,'1',1,1,1,7.007,1.866,0.0,0.0,0.0,0.0,1,1,0
179,'1',1,1,1,19.95,4.078,0.0,0.0,0.0,0.0,1,1,0
182,'1',1,1,1,8.839,0.512,0.0,0.0,0.0,0.0,1,1,0
184,'1',1,1,1,5.3,2.614,0.0,0.0,0.0,0.0,1,1,0
185,'1',1,1,1,12.415,5.44,0.0,0.0,0.0,0.0,1,1,0
186,'1',1,1,1,12.415,6.469,0.0,0.0,0.0,0.0,1,1,0
188,'1',1,1,1,17.237,7.368,0.0,0.0,0.0,0.0,1,1,0
189,'1',1,1,1,11.614,0.822,0.0,0.0,0.0,0.0,1,1,0
190,'1',1,1,1,4.979,1.266,0.0,0.0,0.0,0.0,1,1,0
191,'1',1,1,1,5.477,2.829,0.0,0.0,0.0,0.0,1,1,0
192,'1',1,1,1,15.758,2.864,0.0,0.0,0.0,0.0,1,1,0
193,'1',1,1,1,15.316,4.384,0.0,0.0,0.0,0.0,1,1,0
195,'1',1,1,1,48.601,16.33,0.0,0.0,0.0,0.0,1,1,0
197,'1',1,1,1,16.504,3.494,0.0,0.0,0.0,0.0,1,1,0
200,'1',1,1,1,30.432,11.187,0.0,0.0,0.0,0.0,1,1,0
202,'1',1,1,1,14.611,8.425,0.0,0.0,0.0,0.0,1,1,0
204,'1',1,1,1,20.194,8.625,0.0,0.0,0.0,0.0,1,1,0
205,'1',1,1,1,18.305,2.204,0.0,0.0,0.0,0.0,1,1,0
206,'1',1,1,1,19.083,10.893,0.0,0.0,0.0,0.0,1,1,0
209,'1',1,1,1,59.034,29.482,0.0,0.0,0.0,0.0,1,1,0
211,'1',1,1,1,19.356,7.742,0.0,0.0,0.0,0.0,1,1,0
213,'1',1,1,1,3.1,0.996,0.0,0.0,0.0,0.0,1,1,0
214,'1',1,1,1,2.132,0.311,0.0,0.0,0.0,0.0,1,1,0
215,'1',1,1,1,7.661,3.24,0.0,0.0,0.0,0.0,1,1,0
219,'1',1,1,1,13.926,3.094,0.0,0.0,0.0,0.0,1,1,0
220,'1',1,1,1,2.518,0.506,0.0,0.0,0.0,0.0,1,1,0
221,'1',1,1,1,9.851,2.353,0.0,0.0,0.0,0.0,1,1,0
223,'1',1,1,1,4.749,2.047,0.0,0.0,0.0,0.0,1,1,0
224,'1',1,1,1,2.824,0.792,0.0,0.0,0.0,0.0,1,1,0
225,'1',1,1,1,9.848,1.315,0.0,0.0,0.0,0.0,1,1,0
227,'1',1,1,1,7.255,1.547,0.0,0.0,0.0,0.0,1,1,0
228,'1',1,1,1,14.54,3.222,0.0,0.0,0.0,0.0,1,1,0
229,'1',1,1,1,9.025,3.045,0.0,0.0,0.0,0.0,1,1,0
230,'1',1,1,1,25.842,3.462,0.0,0.0,0.0,0.0,1,1,0
231,'1',1,1,1,10.169,1.702,0.0,0.0,0.0,0.0,1,1,0
232,'1',1,1,1,15.835,3.92,0.0,0.0,0.0,0.0,1,1,0
233,'1',1,1,1,8.146,1.917,0.0,0.0,0.0,0.0,1,1,0
237,'1',1,1,1,21.56,7.75,0.0,0.0,0.0,0.0,1,1,0
239,'1',1,1,1,7.466,2.785,0.0,0.0,0.0,0.0,1,1,0
241,'1',1,1,1,7.073,1.493,0.0,0.0,0.0,0.0,1,1,0
242,'1',1,1,1,2.625,1.363,0.0,0.0,0.0,0.0,1,1,0
243,'1',1,1,1,4.649,5.739,0.0,0.0,0.0,0.0,1,1,0
244,'1',1,1,1,6.893,2.001,0.0,0.0,0.0,0.0,1,1,0
247,'1',1,1,1,20.063,7.474,0.0,0.0,0.0,0.0,1,1,0
249,'1',1,1,1,5.088,0.962,0.0,0.0,0.0,0.0,1,1,0
251,'1',1,1,1,5.538,1.268,0.0,0.0,0.0,0.0,1,1,0
254,'1',1,1,1,33.653,3.09,0.0,0.0,0.0,0.0,1,1,0
256,'1',1,1,1,12.759,0.82,0.0,0.0,0.0,0.0,1,1,0
258,'1',1,1,1,30.513,12.799,0.0,0.0,0.0,0.0,1,1,0
259,'1',1,1,1,15.424,8.361,0.0,0.0,0.0,0.0,1,1,0
260,'1',1,1,1,2.429,1.587,0.0,0.0,0.0,0.0,1,1,0
263,'1',1,1,1,40.546,12.15,0.0,0.0,0.0,0.0,1,1,0
264,'1',1,1,1,20.273,3.987,0.0,0.0,0.0,0.0,1,1,0
265,'1',1,1,1,23.792,4.314,0.0,0.0,0.0,0.0,1,1,0
267,'1',1,1,1,20.273,5.702,0.0,0.0,0.0,0.0,1,1,0
270,'1',1,1,1,19.768,8.973,0.0,0.0,0.0,0.0,1,1,0
271,'1',1,1,1,27.952,7.106,0.0,0.0,0.0,0.0,1,1,0
274,'1',1,1,1,9.478,4.773,0.0,0.0,0.0,0.0,1,1,0
276,'1',1,1,1,3.261,0.618,0.0,0.0,0.0,0.0,1,1,0
277,'1',1,1,1,9.127,0.877,0.0,0.0,0.0,0.0,1,1,0
278,'1',1,1,1,18.688,11.139,0.0,0.0,0.0,0.0,1,1,0
279,'1',1,1,1,5.053,0.58,0.0,0.0,0.0,0.0,1,1,0
280,'1',1,1,1,19.495,6.517,0.0,0.0,0.0,0.0,1,1,0
281,'1',1,1,1,38.99,14.002,0.0,0.0,0.0,0.0,1,1,0
282,'1',1,1,1,11.225,2.877,0.0,0.0,0.0,0.0,1,1,0
283,'1',1,1,1,40.908,11.86,0.0,0.0,0.0,0.0,1,1,0
284,'1',1,1,1,20.454,5.9,0.0,0.0,0.0,0.0,1,1,0
286,'1',1,1,1,39.948,7.897,0.0,0.0,0.0,0.0,1,1,0
290,'1',1,1,1,16.668,0.954,0.0,0.0,0.0,0.0,1,1,0
292,'1',1,1,1,25.601,18.614,0.0,0.0,0.0,0.0,1,1,0
296,'1',1,1,1,47.842,5.862,0.0,0.0,0.0,0.0,1,1,0
298,'1',1,1,1,23.921,16.892,0.0,0.0,0.0,0.0,1,1,0
300,'1',1,1,1,23.921,4.581,0.0,0.0,0.0,0.0,1,1,0
301,'1',1,1,1,7.49,3.165,0.0,0.0,0.0,0.0,1,1,0
303,'1',1,1,1,9.287,1.752,0.0,0.0,0.0,0.0,1,1,0
305,'1',1,1,1,8.047,1.046,0.0,0.0,0.0,0.0,1,1,0
306,'1',1,1,1,3.432,1.828,0.0,0.0,0.0,0.0,1,1,0
307,'1',1,1,1,5.716,0.905,0.0,0.0,0.0,0.0,1,1,0
308,'1',1,1,1,5.382,2.193,0.0,0.0,0.0,0.0,1,1,0
309,'1',1,1,1,19.783,0.953,0.0,0.0,0.0,0.0,1,1,0
313,'1',1,1,1,20.987,12.394,0.0,0.0,0.0,0.0,1,1,0
314,'1',1,1,1,19.783,2.127,0.0,0.0,0.0,0.0,1,1,0
316,'1',1,1,1,19.783,2.157,0.0,0.0,0.0,0.0,1,1,0
317,'1',1,1,1,5.677,1.356,0.0,0.0,0.0,0.0,1,1,0
319,'1',1,1,1,3.764,1.917,0.0,0.0,0.0,0.0,1,1,0
321,'1',1,1,1,5.811,0.99,0.0,0.0,0.0,0.0,1,1,0
322,'1',1,1,1,12.076,3.575,0.0,0.0,0.0,0.0,1,1,0
325,'1',1,1,1,17.898,2.343,0.0,0.0,0.0,0.0,1,1,0
327,'1',1,1,1,13.119,5.641,0.0,0.0,0.0,0.0,1,1,0
329,'1',1,1,1,18.125,4.582,0.0,0.0,0.0,0.0,1,1,0
331,'1',1,1,1,12.342,6.939,0.0,0.0,0.0,0.0,1,1,0
332,'1',1,1,1,7.786,1.761,0.0,0.0,0.0,0.0,1,1,0
336,'1',1,1,1,16.142,7.867,0.0,0.0,0.0,0.0,1,1,0
...
0 / END OF LOAD DATA BEGIN FIXED SHUNT DATA
27,'1',1,0.0,-5.772
194,'1',1,0.0,149.11
252,'1',1,0.0,121.46
371,'1',1,0.0,10.573
383,'1',1,0.0,28.577
473,'1',1,0.0,300.666
509,'1',1,0.0,9.694
567,'1',1,0.0,31.345
590,'1',1,0.0,9.765
682,'1',1,0.0,0.9
748,'1',1,0.0,166.751
759,'1',1,0.0,166.3
834,'1',1,0.0,23.171
842,'1',1,0.0,50.139
898,'1',1,0.0,13.219
902,'1',1,0.0,26.663
1020,'1',1,0.0,29.757
1116,'1',1,0.0,398.884
1120,'1',1,0.0,15.576
1185,'1',1,0.0,11.405
1277,'1',1,0.0,80.0
1296,'1',1,0.0,183.882
1300,'1',1,0.0,31.311
1320,'1',1,0.0,5.454
1336,'1',1,0.0,3.607
1343,'1',1,0.0,128.404
1444,'1',1,0.0,20.326
1472,'1',1,0.0,10.627
1502,'1',1,0.0,13.791
1567,'1',1,0.0,33.42
1600,'1',1,0.0,15.523
1608,'1',1,0.0,0.985
1737,'1',1,0.0,16.19
1749,'1',1,0.0,10.158
1794,'1',1,0.0,103.594
1816,'1',1,0.0,100.204
1822,'1',1,0.0,16.196
1888,'1',1,0.0,266.04
1933,'1',1,0.0,0.731
1977,'1',1,0.0,97.316
2001,'1',1,0.0,56.491
2136,'1',1,0.0,17.677
2144,'1',1,0.0,19.649
2189,'1',1,0.0,3.986
2199,'1',1,0.0,72.395
2986,'1',1,0.0,83.873
3117,'1',1,0.0,0.38
3209,'1',1,0.0,10.216
3306,'1',1,0.0,23.335
3385,'1',1,0.0,22.787
3401,'1',1,0.0,-18.96
3428,'1',1,0.0,285.897
3447,'1',1,0.0,230.576
3811,'1',1,0.0,-65.493
3892,'1',1,0.0,-50.0
4030,'1',1,0.0,-1.498
4565,'1',1,0.0,4.76
4629,'1',1,0.0,23.798
4799,'1',1,0.0,140.59
5065,'1',1,0.0,-18.163
6039,'1',1,0.0,22.19
6059,'1',1,0.0,-42.46
6249,'1',1,0.0,-40.985
6496,'1',1,0.0,16.356
6901,'1',1,0.0,-7.89
7459,'1',1,0.0,34.031
7654,'1',1,0.0,88.373
7674,'1',1,0.0,48.793
7853,'1',1,0.0,7.206
8032,'1',1,0.0,56.261
8172,'1',1,0.0,-29.926
8208,'1',1,0.0,11.078
8215,'1',1,0.0,7.511
8233,'1',1,0.0,27.587
8264,'1',1,0.0,19.315
8882,'1',1,0.0,80.0
9050,'1',1,0.0,-32.33
9232,'1',1,0.0,2.328
9614,'1',1,0.0,-2.85
0 / END OF FIXED SHUNT DATA BEGIN GENERATOR DATA
2275,'1',43.20246,-10.6,48.61,-10.6,1.0365335,0,95.5,0.0,1.0,0.0,0.0,1.0,1,1.0,95.5,29.823,1,1.0,0,1.0,0,1.0,0,1.0,0,1.0
2276,'1',51.00726,-9.5290927,48.61,-10.6,1.036,0,95.5,0.0,1.0,0.0,0.0,1.0,1,1.0,95.5,39.579,1,1.0,0,1.0,0,1.0,0,1.0,0,1.0
2277,'1',28.77206,-9.3951123,48.61,-10.6,1.036,0,95.5,0.0,1.0,0.0,0.0,1.0,1,1.0,95.5,11.785,1,1.0,0,1.0,0,1.0,0,1.0,0,1.0
2278,'1',28.40246,-10.6,48.61,-10.6,1.036,0,95.5,0.0,1.0,0.0,0.0,1.0,1,1.0,95.5,11.323,1,1.0,0,1.0,0,1.0,0,1.0,0,1.0
2279,'1',37.38806,-10.526311,48.61,-10.6,1.036,0,95.5,0.0,1.0,0.0,0.0,1.0,1,1.0,95.5,22.555,1,1.0,0,1.0,0,1.0,0,1.0,0,1.0
2280,'1',34.66326,-9.3837477,48.61,-10.6,1.036,0,95.5,0.0,1.0,0.0,0.0,1.0,1,1.0,95.5,19.149,1,1.0,0,1.0,0,1.0,0,1.0,0,1.0
2285,'1',201.0,-14.998093,42.813,-28.944,1.04,0,201.0,0.0,1.0,0.0,0.0,1.0,1,1.0,201.0,58.433,1,1.0,0,1.0,0,1.0,0,1.0,0,1.0
2289,'1',2.859,-0.927,3.542,-0.927,1.0472669,0,7.6,0.0,1.0,0.0,0.0,1.0,0,1.0,7.6,2.682,1,1.0,0,1.0,0,1.0,0,1.0,0,1.0
2289,'2',1.768,-0.573,2.19,-0.573,1.0472669,0,4.7,0.0,1.0,0.0,0.0,1.0,0,1.0,4.7,1.507,1,1.0,0,1.0,0,1.0,0,1.0,0,1.0
2290,'1',0.79,-0.211,0.808,-0.211,1.0472669,0,1.73,0.0,1.0,0.0,0.0,1.0,0,1.0,1.733,0.79,1,1.0,0,1.0,0,1.0,0,1.0,0,1.0
2290,'2',0.652,-0.211,0.808,-0.211,1.0472669,0,1.73,0.0,1.0,0.0,0.0,1.0,0,1.0,1.733,0.337,1,1.0,0,1.0,0,1.0,0,1.0,0,1.0
2291,'1',0.652,-0.211,0.808,-0.211,1.0472669,0,1.73,0.0,1.0,0.0,0.0,1.0,0,1.0,1.733,0.583,1,1.0,0,1.0,0,1.0,0,1.0,0,1.0
2291,'2',0.849,-0.211,0.808,-0.211,1.0472669,0,1.73,0.0,1.0,0.0,0.0,1.0,0,1.0,1.733,0.849,1,1.0,0,1.0,0,1.0,0,1.0,0,1.0
2292,'1',0.652,-0.211,0.808,-0.211,1.0472669,0,1.73,0.0,1.0,0.0,0.0,1.0,0,1.0,1.733,0.316,1,1.0,0,1.0,0,1.0,0,1.0,0,1.0
2293,'1',0.652,-0.211,0.808,-0.211,1.0472669,0,1.73,0.0,1.0,0.0,0.0,1.0,0,1.0,1.733,0.545,1,1.0,0,1.0,0,1.0,0,1.0,0,1.0
2294,'1',0.602,-0.195,0.746,-0.195,1.0472669,0,1.6,0.0,1.0,0.0,0.0,1.0,0,1.0,1.6,0.427,1,1.0,0,1.0,0,1.0,0,1.0,0,1.0
2294,'2',0.602,-0.195,0.746,-0.195,1.0472669,0,1.6,0.0,1.0,0.0,0.0,1.0,0,1.0,1.6,0.429,1,1.0,0,1.0,0,1.0,0,1.0,0,1.0
2295,'1',0.564,-0.183,0.699,-0.183,1.0472669,0,1.5,0.0,1.0,0.0,0.0,1.0,0,1.0,1.5,0.455,1,1.0,0,1.0,0,1.0,0,1.0,0,1.0
2295,'2',0.527,-0.171,0.652,-0.171,1.0472669,0,1.4,0.0,1.0,0.0,0.0,1.0,0,1.0,1.4,0.161,1,1.0,0,1.0,0,1.0,0,1.0,0,1.0
2296,'1',0.238,-0.061,0.233,-0.061,1.0472669,0,0.5,0.0,1.0,0.0,0.0,1.0,0,1.0,0.5,0.238,1,1.0,0,1.0,0,1.0,0,1.0,0,1.0
2302,'1',111.202,129.071,149.646,-32.634,1.0122293,0,294.0,0.0,1.0,0.0,0.0,1.0,0,1.0,294.0,111.202,1,1.0,0,1.0,0,1.0,0,1.0,0,1.0
2303,'1',87.715,43.051,149.646,-32.634,1.0246493,0,294.0,0.0,1.0,0.0,0.0,1.0,0,1.0,294.0,87.715,1,1.0,0,1.0,0,1.0,0,1.0,0,1.0
2304,'1',73.167,100.92,149.646,-32.634,1.0184014,0,294.0,0.0,1.0,0.0,0.0,1.0,0,1.0,294.0,73.167,1,1.0,0,1.0,0,1.0,0,1.0,0,1.0
2310,'1',274.004,0.0,290.038,-75.933,1.0405,0,622.4,0.0,1.0,0.0,0.0,1.0,0,1.0,622.4,274.004,1,1.0,0,1.0,0,1.0,0,1.0,0,1.0
2315,'1',112.5,50.361539,57.262,-12.488,1.0135,0,112.5,0.0,1.0,0.0,0.0,1.0,1,1.0,112.5,50.341,1,1.0,0,1.0,0,1.0,0,1.0,0,1.0
2316,'1',112.5,47.052028,57.262,-12.488,1.0135,0,112.5,0.0,1.0,0.0,0.0,1.0,1,1.0,112.5,36.523,1,1.0,0,1.0,0,1.0,0,1.0,0,1.0
2317,'1',112.5,25.934532,57.262,-12.488,1.0135,0,112.5,0.0,1.0,0.0,0.0,1.0,1,1.0,112.5,47.475,1,1.0,0,1.0,0,1.0,0,1.0,0,1.0
2318,'1',112.5,47.653283,57.262,-12.488,1.0135,0,112.5,0.0,1.0,0.0,0.0,1.0,1,1.0,112.5,15.094,1,1.0,0,1.0,0,1.0,0,1.0,0,1.0
2323,'1',161.0,-11.895092,34.293,-23.184,1.04,0,161.0,0.0,1.0,0.0,0.0,1.0,1,1.0,161.0,25.175,1,1.0,0,1.0,0,1.0,0,1.0,0,1.0
2327,'1',101.2,-3.4646709,21.556,-14.573,1.04,0,101.2,0.0,1.0,0.0,0.0,1.0,1,1.0,101.2,39.642,1,1.0,0,1.0,0,1.0,0,1.0,0,1.0
2332,'1',157.98852,0.4400217,93.317,-20.35,1.0625,0,183.33,0.0,1.0,0.0,0.0,1.0,1,1.0,183.333,54.251,1,1.0,0,1.0,0,1.0,0,1.0,0,1.0
2333,'1',183.333,14.075527,93.317,-20.35,1.0625,0,183.33,0.0,1.0,0.0,0.0,1.0,1,1.0,183.333,85.229,1,1.0,0,1.0,0,1.0,0,1.0,0,1.0
2334,'1',183.333,0.10092174,93.317,-20.35,1.0625,0,183.33,0.0,1.0,0.0,0.0,1.0,1,1.0,183.333,69.843,1,1.0,0,1.0,0,1.0,0,1.0,0,1.0
2340,'1',187.779,0.0,336.452,-88.084,1.0331487,0,722.0,0.0,1.0,0.0,0.0,1.0,0,1.0,722.0,187.779,1,1.0,0,1.0,0,1.0,0,1.0,0,1.0
2341,'1',295.436,0.0,336.452,-88.084,1.0331487,0,722.0,0.0,1.0,0.0,0.0,1.0,0,1.0,722.0,295.436,1,1.0,0,1.0,0,1.0,0,1.0,0,1.0
2346,'1',29.051671,-4.9034615,45.505,-9.923,1.036,0,89.4,0.0,1.0,0.0,0.0,1.0,1,1.0,89.4,13.679,1,1.0,0,1.0,0,1.0,0,1.0,0,1.0
2347,'1',34.851671,-6.6162576,45.505,-9.923,1.036,0,89.4,0.0,1.0,0.0,0.0,1.0,1,1.0,89.4,20.929,1,1.0,0,1.0,0,1.0,0,1.0,0,1.0
2348,'1',32.792471,-4.2892733,45.505,-9.923,1.036,0,89.4,0.0,1.0,0.0,0.0,1.0,1,1.0,89.4,18.355,1,1.0,0,1.0,0,1.0,0,1.0,0,1.0
2349,'1',47.610871,-4.1941518,45.505,-9.923,1.036,0,89.4,0.0,1.0,0.0,0.0,1.0,1,1.0,89.4,36.878,1,1.0,0,1.0,0,1.0,0,1.0,0,1.0
2350,'1',38.567671,-6.5467467,45.505,-9.923,1.036,0,89.4,0.0,1.0,0.0,0.0,1.0,1,1.0,89.4,25.574,1,1.0,0,1.0,0,1.0,0,1.0,0,1.0
2351,'1',51.136471,-4.5315469,45.505,-9.923,1.036,0,89.4,0.0,1.0,0.0,0.0,1.0,1,1.0,89.4,41.285,1,1.0,0,1.0,0,1.0,0,1.0,0,1.0
2352,'1',0.17889891,-0.048,0.221,-0.048,1.04,0,0.43,0.0,1.0,0.0,0.0,1.0,1,1.0,0.433,0.114,1,1.0,0,1.0,0,1.0,0,1.0,0,1.0
2353,'1',0.22689891,-0.045708147,0.221,-0.048,1.0379048,0,0.43,0.0,1.0,0.0,0.0,1.0,1,1.0,0.433,0.174,1,1.0,0,1.0,0,1.0,0,1.0,0,1.0
2353,'2',0.25649891,-0.045708147,0.221,-0.048,1.0379048,0,0.43,0.0,1.0,0.0,0.0,1.0,1,1.0,0.433,0.211,1,1.0,0,1.0,0,1.0,0,1.0,0,1.0
2358,'1',15.775,-0.83614485,8.029,-1.751,1.04,0,15.77,0.0,1.0,0.0,0.0,1.0,1,1.0,15.775,2.354,1,1.0,0,1.0,0,1.0,0,1.0,0,1.0
2358,'2',15.775,-0.83614485,8.029,-1.751,1.04,0,15.77,0.0,1.0,0.0,0.0,1.0,1,1.0,15.775,7.877,1,1.0,0,1.0,0,1.0,0,1.0,0,1.0
2359,'1',15.775,-1.751,8.029,-1.751,1.0404573,0,15.77,0.0,1.0,0.0,0.0,1.0,1,1.0,15.775,5.353,1,1.0,0,1.0,0,1.0,0,1.0,0,1.0
2360,'1',15.775,5.3808311,8.029,-1.751,1.045,0,15.77,0.0,1.0,0.0,0.0,1.0,1,1.0,15.775,4.735,1,1.0,0,1.0,0,1.0,0,1.0,0,1.0
2364,'1',172.67408,-19.814,90.856,-19.814,1.0364509,0,178.5,0.0,1.0,0.0,0.0,1.0,1,1.0,178.5,21.473,1,1.0,0,1.0,0,1.0,0,1.0,0,1.0
2365,'1',178.5,-19.150718,90.856,-19.814,1.036,0,178.5,0.0,1.0,0.0,0.0,1.0,1,1.0,178.5,49.538,1,1.0,0,1.0,0,1.0,0,1.0,0,1.0
2366,'1',174.09208,-10.175735,90.856,-19.814,1.036,0,178.5,0.0,1.0,0.0,0.0,1.0,1,1.0,178.5,56.891,1,1.0,0,1.0,0,1.0,0,1.0,0,1.0
2371,'1',81.113,-26.314,123.891,-27.017,1.052909,0,243.4,0.0,1.0,0.0,0.0,1.0,0,1.0,243.4,39.17,1,1.0,0,1.0,0,1.0,0,1.0,0,1.0
2372,'1',78.726,-27.017,123.891,-27.017,1.052909,0,243.4,0.0,1.0,0.0,0.0,1.0,0,1.0,243.4,78.726,1,1.0,0,1.0,0,1.0,0,1.0,0,1.0
2373,'1',112.876,-22.727,123.891,-27.017,1.052909,0,243.4,0.0,1.0,0.0,0.0,1.0,0,1.0,243.4,112.876,1,1.0,0,1.0,0,1.0,0,1.0,0,1.0
2376,'1',1.2260168,-0.383,1.756,-0.383,1.0416769,0,3.45,0.0,1.0,0.0,0.0,1.0,1,1.0,3.45,0.659,1,1.0,0,1.0,0,1.0,0,1.0,0,1.0
2376,'2',1.8876168,-0.383,1.756,-0.383,1.0416769,0,3.45,0.0,1.0,0.0,0.0,1.0,1,1.0,3.45,1.486,1,1.0,0,1.0,0,1.0,0,1.0,0,1.0
2376,'3',2.271978,-0.555,2.545,-0.555,1.0416769,0,5.0,0.0,1.0,0.0,0.0,1.0,1,1.0,5.0,1.574,1,1.0,0,1.0,0,1.0,0,1.0,0,1.0
2376,'4',41.914669,-5.328,24.432,-5.328,1.0416769,0,48.0,0.0,1.0,0.0,0.0,1.0,1,1.0,48.0,9.187,1,1.0,0,1.0,0,1.0,0,1.0,0,1.0
2379,'1',39.6,6.0674101,148.609,0.0,1.04,0,39.6,0.0,1.0,0.0,0.0,1.0,1,1.0,39.6,13.389,1,1.0,0,1.0,0,1.0,0,1.0,0,1.0
2384,'1',130.0,56.950533,66.17,-14.43,1.009,0,130.0,0.0,1.0,0.0,0.0,1.0,1,1.0,130.0,29.611,1,1.0,0,1.0,0,1.0,0,1.0,0,1.0
2385,'1',130.0,60.076298,66.17,-14.43,1.009,0,130.0,0.0,1.0,0.0,0.0,1.0,1,1.0,130.0,35.775,1,1.0,0,1.0,0,1.0,0,1.0,0,1.0
2390,'1',155.9,-17.305,79.353,-17.305,1.0606194,0,155.9,0.0,1.0,0.0,0.0,1.0,1,1.0,155.9,39.963,1,1.0,0,1.0,0,1.0,0,1.0,0,1.0
2391,'1',139.33634,-17.305,79.353,-17.305,1.0572314,0,155.9,0.0,1.0,0.0,0.0,1.0,1,1.0,155.9,49.889,1,1.0,0,1.0,0,1.0,0,1.0,0,1.0
2392,'1',145.50834,-17.305,79.353,-17.305,1.0572846,0,155.9,0.0,1.0,0.0,0.0,1.0,1,1.0,155.9,21.03,1,1.0,0,1.0,0,1.0,0,1.0,0,1.0
2397,'1',77.142,0.0,335.986,-87.962,1.0395454,0,721.0,0.0,1.0,0.0,0.0,1.0,0,1.0,721.0,77.142,1,1.0,0,1.0,0,1.0,0,1.0,0,1.0
2401,'1',0.85017792,19.133516,148.609,-0.157,1.039,0,3.2,0.0,1.0,0.0,0.0,1.0,1,1.0,3.2,0.842,1,1.0,0,1.0,0,1.0,0,1.0,0,1.0
2401,'2',1.4051779,0.02272289,1.229,-0.157,1.039,0,3.2,0.0,1.0,0.0,0.0,1.0,1,1.0,3.2,1.397,1,1.0,0,1.0,0,1.0,0,1.0,0,1.0
2401,'3',1.2461779,0.02272289,1.229,-0.157,1.039,0,3.2,0.0,1.0,0.0,0.0,1.0,1,1.0,3.2,1.238,1,1.0,0,1.0,0,1.0,0,1.0,0,1.0
2401,'4',7.6103348,0.23585742,12.672,-1.617,1.039,0,33.0,0.0,1.0,0.0,0.0,1.0,1,1.0,33.0,7.526,1,1.0,0,1.0,0,1.0,0,1.0,0,1.0
2401,'5',8.0293348,0.23585742,12.672,-1.617,1.039,0,33.0,0.0,1.0,0.0,0.0,1.0,1,1.0,33.0,7.945,1,1.0,0,1.0,0,1.0,0,1.0,0,1.0
2404,'1',27.630465,-10.98,16.241,-10.98,1.0455128,0,76.25,0.0,1.0,0.0,0.0,1.0,1,1.0,76.25,15.232,1,1.0,0,1.0,0,1.0,0,1.0,0,1.0
2404,'2',33.112865,-10.98,16.241,-10.98,1.0455128,0,76.25,0.0,1.0,0.0,0.0,1.0,1,1.0,76.25,22.085,1,1.0,0,1.0,0,1.0,0,1.0,0,1.0
2409,'1',28.0,2.7905012,14.252,-3.108,1.033,0,28.0,0.0,1.0,0.0,0.0,1.0,1,1.0,28.0,3.66,1,1.0,0,1.0,0,1.0,0,1.0,0,1.0
2409,'2',28.0,2.7905012,14.252,-3.108,1.033,0,28.0,0.0,1.0,0.0,0.0,1.0,1,1.0,28.0,4.228,1,1.0,0,1.0,0,1.0,0,1.0,0,1.0
2410,'1',28.0,-3.108,14.252,-3.108,1.0439765,0,28.0,0.0,1.0,0.0,0.0,1.0,1,1.0,28.0,8.52,1,1.0,0,1.0,0,1.0,0,1.0,0,1.0
2411,'1',28.0,-0.011365569,14.252,-3.108,1.04,0,28.0,0.0,1.0,0.0,0.0,1.0,1,1.0,28.0,9.61,1,1.0,0,1.0,0,1.0,0,1.0,0,1.0
2411,'2',28.0,-0.011365569,14.252,-3.108,1.04,0,28.0,0.0,1.0,0.0,0.0,1.0,1,1.0,28.0,3.693,1,1.0,0,1.0,0,1.0,0,1.0,0,1.0
2412,'1',28.0,-3.108,14.252,-3.108,1.0403433,0,28.0,0.0,1.0,0.0,0.0,1.0,1,1.0,28.0,4.069,1,1.0,0,1.0,0,1.0,0,1.0,0,1.0
2416,'1',28.3,-1.8497023,14.405,-3.141,1.04,0,28.3,0.0,1.0,0.0,0.0,1.0,1,1.0,28.3,12.782,1,1.0,0,1.0,0,1.0,0,1.0,0,1.0
2416,'2',28.3,-1.8497023,14.405,-3.141,1.04,0,28.3,0.0,1.0,0.0,0.0,1.0,1,1.0,28.3,8.123,1,1.0,0,1.0,0,1.0,0,1.0,0,1.0
2417,'1',28.3,-1.5030244,14.405,-3.141,1.04,0,28.3,0.0,1.0,0.0,0.0,1.0,1,1.0,28.3,14.024,1,1.0,0,1.0,0,1.0,0,1.0,0,1.0
2417,'2',28.3,-1.5030244,14.405,-3.141,1.04,0,28.3,0.0,1.0,0.0,0.0,1.0,1,1.0,28.3,3.342,1,1.0,0,1.0,0,1.0,0,1.0,0,1.0
2418,'1',28.3,-1.8318974,14.405,-3.141,1.04,0,28.3,0.0,1.0,0.0,0.0,1.0,1,1.0,28.3,9.646,1,1.0,0,1.0,0,1.0,0,1.0,0,1.0
2418,'2',28.3,-1.8318974,14.405,-3.141,1.04,0,28.3,0.0,1.0,0.0,0.0,1.0,1,1.0,28.3,7.23,1,1.0,0,1.0,0,1.0,0,1.0,0,1.0
2423,'1',61.0,31.049,31.049,-6.771,1.0217327,0,61.0,0.0,1.0,0.0,0.0,1.0,1,1.0,61.0,8.738,1,1.0,0,1.0,0,1.0,0,1.0,0,1.0
2424,'1',24.0,-2.664,12.216,-2.664,1.040127,0,24.0,0.0,1.0,0.0,0.0,1.0,1,1.0,24.0,4.166,1,1.0,0,1.0,0,1.0,0,1.0,0,1.0
2428,'1',112.194,126.571,126.571,-27.602,1.0223166,0,248.67,0.0,1.0,0.0,0.0,1.0,0,1.0,248.667,112.194,1,1.0,0,1.0,0,1.0,0,1.0,0,1.0
2429,'1',88.972,10.799,126.571,-27.602,1.0223166,0,248.67,0.0,1.0,0.0,0.0,1.0,0,1.0,248.667,88.972,1,1.0,0,1.0,0,1.0,0,1.0,0,1.0
2430,'1',83.42,126.571,126.571,-27.602,1.0223166,0,248.67,0.0,1.0,0.0,0.0,1.0,0,1.0,248.667,83.42,1,1.0,0,1.0,0,1.0,0,1.0,0,1.0
2433,'1',27.968471,1.1706861,45.505,-9.923,1.044,0,89.4,0.0,1.0,0.0,0.0,1.0,1,1.0,89.4,12.325,1,1.0,0,1.0,0,1.0,0,1.0,0,1.0
2433,'2',30.319671,1.1706861,45.505,-9.923,1.044,0,89.4,0.0,1.0,0.0,0.0,1.0,1,1.0,89.4,15.264,1,1.0,0,1.0,0,1.0,0,1.0,0,1.0
2433,'3',37.244471,1.1706861,45.505,-9.923,1.044,0,89.4,0.0,1.0,0.0,0.0,1.0,1,1.0,89.4,23.92,1,1.0,0,1.0,0,1.0,0,1.0,0,1.0
2433,'4',47.164471,1.1706861,45.505,-9.923,1.044,0,89.4,0.0,1.0,0.0,0.0,1.0,1,1.0,89.4,36.32,1,1.0,0,1.0,0,1.0,0,1.0,0,1.0
2433,'5',26.692471,1.1706861,45.505,-9.923,1.044,0,89.4,0.0,1.0,0.0,0.0,1.0,1,1.0,89.4,10.73,1,1.0,0,1.0,0,1.0,0,1.0,0,1.0
2441,'1',168.333,85.682,85.682,-18.685,1.0174597,0,168.33,0.0,1.0,0.0,0.0,1.0,1,1.0,168.333,53.326,1,1.0,0,1.0,0,1.0,0,1.0,0,1.0
2442,'1',159.1905,85.231039,85.682,-18.685,1.0181389,0,168.33,0.0,1.0,0.0,0.0,1.0,1,1.0,168.333,48.665,1,1.0,0,1.0,0,1.0,0,1.0,0,1.0
2443,'1',168.333,85.682,85.682,-18.685,1.0167535,0,168.33,0.0,1.0,0.0,0.0,1.0,1,1.0,168.333,75.409,1,1.0,0,1.0,0,1.0,0,1.0,0,1.0
2449,'1',142.88062,169.088,169.088,-35.226,1.0284054,0,317.35,0.0,1.0,0.0,0.0,1.0,1,1.0,317.35,134.767,1,1.0,0,1.0,0,1.0,0,1.0,0,1.0
2450,'1',130.82022,100.634,100.634,-35.226,1.0175049,0,317.35,0.0,1.0,0.0,0.0,1.0,1,1.0,317.35,113.719,1,1.0,0,1.0,0,1.0,0,1.0,0,1.0
2455,'1',131.8,21.386122,67.086,-14.63,1.032,0,131.8,0.0,1.0,0.0,0.0,1.0,1,1.0,131.8,53.208,1,1.0,0,1.0,0,1.0,0,1.0,0,1.0
2456,'1',120.52083,20.939072,67.086,-14.63,1.0365,0,131.8,0.0,1.0,0.0,0.0,1.0,1,1.0,131.8,59.222,1,1.0,0,1.0,0,1.0,0,1.0,0,1.0
2459,'1',10.387423,-2.442,11.198,-2.442,1.0483342,0,22.0,0.0,1.0,0.0,0.0,1.0,1,1.0,22.0,7.414,1,1.0,0,1.0,0,1.0,0,1.0,0,1.0
2459,'2',22.0,-2.442,11.198,-2.442,1.0483342,0,22.0,0.0,1.0,0.0,0.0,1.0,1,1.0,22.0,4.504,1,1.0,0,1.0,0,1.0,0,1.0,0,1.0
2459,'3',22.0,-2.442,11.198,-2.442,1.0483342,0,22.0,0.0,1.0,0.0,0.0,1.0,1,1.0,22.0,9.955,1,1.0,0,1.0,0,1.0,0,1.0,0,1.0
2464,'1',96.683,15.808483,49.212,-10.732,1.054,0,96.68,0.0,1.0,0.0,0.0,1.0,1,1.0,96.683,27.432,1,1.0,0,1.0,0,1.0,0,1.0,0,1.0
2465,'1',96.683,11.692532,49.212,-10.732,1.054,0,96.68,0.0,1.0,0.0,0.0,1.0,1,1.0,96.683,28.207,1,1.0,0,1.0,0,1.0,0,1.0,0,1.0
2466,'1',96.683,10.123547,49.212,-10.732,1.054,0,96.68,0.0,1.0,0.0,0.0,1.0,1,1.0,96.683,30.797,1,1.0,0,1.0,0,1.0,0,1.0,0,1.0
2467,'1',96.683,12.224305,49.212,-10.732,1.054,0,96.68,0.0,1.0,0.0,0.0,1.0,1,1.0,96.683,30.344,1,1.0,0,1.0,0,1.0,0,1.0,0,1.0
2468,'1',96.683,21.829745,49.212,-10.732,1.054,0,96.68,0.0,1.0,0.0,0.0,1.0,1,1.0,96.683,32.937,1,1.0,0,1.0,0,1.0,0,1.0,0,1.0
2469,'1',96.683,15.670614,49.212,-10.732,1.054,0,96.68,0.0,1.0,0.0,0.0,1.0,1,1.0,96.683,43.072,1,1.0,0,1.0,0,1.0,0,1.0,0,1.0
2473,'1',76.15,31.169967,38.76,-8.453,1.045,0,76.15,0.0,1.0,0.0,0.0,1.0,1,1.0,76.15,12.006,1,1.0,0,1.0,0,1.0,0,1.0,0,1.0
2473,'2',76.15,31.169967,38.76,-8.453,1.045,0,76.15,0.0,1.0,0.0,0.0,1.0,1,1.0,76.15,22.291,1,1.0,0,1.0,0,1.0,0,1.0,0,1.0
2473,'3',76.15,31.169967,38.76,-8.453,1.045,0,76.15,0.0,1.0,0.0,0.0,1.0,1,1.0,76.15,36.024,1,1.0,0,1.0,0,1.0,0,1.0,0,1.0
2473,'4',76.15,31.169967,38.76,-8.453,1.045,0,76.15,0.0,1.0,0.0,0.0,1.0,1,1.0,76.15,10.342,1,1.0,0,1.0,0,1.0,0,1.0,0,1.0
2477,'1',38.0,17.323443,19.342,-4.218,1.0425,0,38.0,0.0,1.0,0.0,0.0,1.0,1,1.0,38.0,10.706,1,1.0,0,1.0,0,1.0,0,1.0,0,1.0
2481,'1',170.2,1.0840831,36.253,-24.509,1.045,0,170.2,0.0,1.0,0.0,0.0,1.0,1,1.0,170.2,59.987,1,1.0,0,1.0,0,1.0,0,1.0,0,1.0
2486,'1',205.90541,87.694487,114.627,-24.997,1.0675,0,225.2,0.0,1.0,0.0,0.0,1.0,1,1.0,225.2,101.015,1,1.0,0,1.0,0,1.0,0,1.0,0,1.0
2487,'1',84.723,104.964,114.627,-24.997,1.0276543,0,225.2,0.0,1.0,0.0,0.0,1.0,0,1.0,225.2,67.765,1,1.0,0,1.0,0,1.0,0,1.0,0,1.0
2488,'1',202.56941,111.97968,114.627,-24.997,1.0675,0,225.2,0.0,1.0,0.0,0.0,1.0,1,1.0,225.2,80.164,1,1.0,0,1.0,0,1.0,0,1.0,0,1.0
2493,'1',150.0,13.788077,31.95,-21.6,1.0445,0,150.0,0.0,1.0,0.0,0.0,1.0,1,1.0,150.0,53.398,1,1.0,0,1.0,0,1.0,0,1.0,0,1.0
2499,'1',180.0,-25.29615,38.34,-25.92,1.0407653,0,180.0,0.0,1.0,0.0,0.0,1.0,1,1.0,180.0,54.851,1,1.0,0,1.0,0,1.0,0,1.0,0,1.0
2500,'1',9.0,1.917,1.917,-1.296,1.0337865,0,9.0,0.0,1.0,0.0,0.0,1.0,1,1.0,9.0,2.266,1,1.0,0,1.0,0,1.0,0,1.0,0,1.0
2506,'1',161.4,37.760787,82.153,-17.915,1.047,0,161.4,0.0,1.0,0.0,0.0,1.0,1,1.0,161.4,78.585,1,1.0,0,1.0,0,1.0,0,1.0,0,1.0
2507,'1',144.37239,25.528205,82.153,-17.915,1.047,0,161.4,0.0,1.0,0.0,0.0,1.0,1,1.0,161.4,52.405,1,1.0,0,1.0,0,1.0,0,1.0,0,1.0
2508,'1',144.28039,47.676184,82.153,-17.915,1.0515,0,161.4,0.0,1.0,0.0,0.0,1.0,1,1.0,161.4,51.825,1,1.0,0,1.0,0,1.0,0,1.0,0,1.0
2509,'1',161.4,33.417412,82.153,-17.915,1.047,0,161.4,0.0,1.0,0.0,0.0,1.0,1,1.0,161.4,60.739,1,1.0,0,1.0,0,1.0,0,1.0,0,1.0
2510,'1',154.84039,26.288304,82.153,-17.915,1.047,0,161.4,0.0,1.0,0.0,0.0,1.0,1,1.0,161.4,74.24,1,1.0,0,1.0,0,1.0,0,1.0,0,1.0
2515,'1',100.441,17.508,104.973,-22.892,1.0446404,0,206.23,0.0,1.0,0.0,0.0,1.0,0,1.0,206.233,100.441,1,1.0,0,1.0,0,1.0,0,1.0,0,1.0
2516,'1',91.402041,29.199403,104.973,-22.892,1.054,0,206.23,0.0,1.0,0.0,0.0,1.0,1,1.0,206.233,90.875,1,1.0,0,1.0,0,1.0,0,1.0,0,1.0
2517,'1',171.61364,38.30112,104.973,-22.892,1.054,0,206.23,0.0,1.0,0.0,0.0,1.0,1,1.0,206.233,96.392,1,1.0,0,1.0,0,1.0,0,1.0,0,1.0
2521,'1',67.6,8.416854,14.399,-9.734,1.054,0,67.6,0.0,1.0,0.0,0.0,1.0,1,1.0,67.6,10.419,1,1.0,0,1.0,0,1.0,0,1.0,0,1.0
2526,'1',155.0,6.8276082,78.895,-17.205,1.045,0,155.0,0.0,1.0,0.0,0.0,1.0,1,1.0,155.0,50.297,1,1.0,0,1.0,0,1.0,0,1.0,0,1.0
2527,'1',139.22204,4.4459894,78.895,-17.205,1.045,0,155.0,0.0,1.0,0.0,0.0,1.0,1,1.0,155.0,20.217,1,1.0,0,1.0,0,1.0,0,1.0,0,1.0
2531,'1',30.0,0.0,0.0,0.0,1.0479766,0,30.0,0.0,1.0,0.0,0.0,1.0,1,1.0,30.0,3.39,1,1.0,0,1.0,0,1.0,0,1.0,0,1.0
2531,'2',1.4,0.0,0.0,0.0,1.0479766,0,1.4,0.0,1.0,0.0,0.0,1.0,1,1.0,1.4,0.549,1,1.0,0,1.0,0,1.0,0,1.0,0,1.0
2536,'1',59.0,22.724688,30.031,-6.549,1.065,0,59.0,0.0,1.0,0.0,0.0,1.0,1,1.0,59.0,24.736,1,1.0,0,1.0,0,1.0,0,1.0,0,1.0
2537,'1',59.0,14.767632,30.031,-6.549,1.065,0,59.0,0.0,1.0,0.0,0.0,1.0,1,1.0,59.0,12.681,1,1.0,0,1.0,0,1.0,0,1.0,0,1.0
2538,'1',59.0,14.882304,30.031,-6.549,1.065,0,59.0,0.0,1.0,0.0,0.0,1.0,1,1.0,59.0,17.743,1,1.0,0,1.0,0,1.0,0,1.0,0,1.0
2539,'1',59.0,19.867823,30.031,-6.549,1.065,0,59.0,0.0,1.0,0.0,0.0,1.0,1,1.0,59.0,26.511,1,1.0,0,1.0,0,1.0,0,1.0,0,1.0
2544,'1',67.075,0.0,81.364,-21.301,1.0395,0,174.6,0.0,1.0,0.0,0.0,1.0,0,1.0,174.6,67.075,1,1.0,0,1.0,0,1.0,0,1.0,0,1.0
2545,'1',42.259,0.0,81.364,-21.301,1.0395,0,174.6,0.0,1.0,0.0,0.0,1.0,0,1.0,174.6,42.259,1,1.0,0,1.0,0,1.0,0,1.0,0,1.0
2548,'1',10.760101,-3.097,14.201,-3.097,1.047528,0,27.9,0.0,1.0,0.0,0.0,1.0,1,1.0,27.9,6.386,1,1.0,0,1.0,0,1.0,0,1.0,0,1.0
2549,'1',8.4521013,-3.097,14.201,-3.097,1.0488364,0,27.9,0.0,1.0,0.0,0.0,1.0,1,1.0,27.9,3.501,1,1.0,0,1.0,0,1.0,0,1.0,0,1.0
2549,'2',16.190501,-3.097,14.201,-3.097,1.0488364,0,27.9,0.0,1.0,0.0,0.0,1.0,1,1.0,27.9,13.174,1,1.0,0,1.0,0,1.0,0,1.0,0,1.0
2549,'3',13.250501,-3.097,14.201,-3.097,1.0488364,0,27.9,0.0,1.0,0.0,0.0,1.0,1,1.0,27.9,9.499,1,1.0,0,1.0,0,1.0,0,1.0,0,1.0
2549,'4',14.868101,-3.097,14.201,-3.097,1.0488364,0,27.9,0.0,1.0,0.0,0.0,1.0,1,1.0,27.9,11.521,1,1.0,0,1.0,0,1.0,0,1.0,0,1.0
2549,'5',14.060101,-3.097,14.201,-3.097,1.0488364,0,27.9,0.0,1.0,0.0,0.0,1.0,1,1.0,27.9,10.511,1,1.0,0,1.0,0,1.0,0,1.0,0,1.0
2554,'1',104.98108,16.864982,67.137,-14.641,1.0585,0,131.9,0.0,1.0,0.0,0.0,1.0,1,1.0,131.9,46.727,1,1.0,0,1.0,0,1.0,0,1.0,0,1.0
2555,'1',131.9,26.424635,67.137,-14.641,1.0585,0,131.9,0.0,1.0,0.0,0.0,1.0,1,1.0,131.9,65.353,1,1.0,0,1.0,0,1.0,0,1.0,0,1.0
2556,'1',98.925084,19.280618,67.137,-14.641,1.0585,0,131.9,0.0,1.0,0.0,0.0,1.0,1,1.0,131.9,27.798,1,1.0,0,1.0,0,1.0,0,1.0,0,1.0
2557,'1',68.789084,19.379534,67.137,-14.641,1.0585,0,131.9,0.0,1.0,0.0,0.0,1.0,1,1.0,131.9,32.76,1,1.0,0,1.0,0,1.0,0,1.0,0,1.0
2563,'1',542.749,441.919,447.12,-99.63,0.9754386,0,1215.0,0.0,1.0,0.0,0.0,1.0,0,1.0,1215.0,542.749,1,1.0,0,1.0,0,1.0,0,1.0,0,1.0
2564,'1',457.1,447.12,447.12,-99.63,0.9754386,0,1215.0,0.0,1.0,0.0,0.0,1.0,0,1.0,1215.0,196.854,1,1.0,0,1.0,0,1.0,0,1.0,0,1.0
2567,'1',72.0,-7.549606,36.648,-7.992,1.037,0,72.0,0.0,1.0,0.0,0.0,1.0,1,1.0,72.0,24.623,1,1.0,0,1.0,0,1.0,0,1.0,0,1.0
2567,'2',72.0,-7.549606,36.648,-7.992,1.037,0,72.0,0.0,1.0,0.0,0.0,1.0,1,1.0,72.0,32.496,1,1.0,0,1.0,0,1.0,0,1.0,0,1.0
2567,'3',72.0,-7.549606,36.648,-7.992,1.037,0,72.0,0.0,1.0,0.0,0.0,1.0,1,1.0,72.0,8.594,1,1.0,0,1.0,0,1.0,0,1.0,0,1.0
2567,'4',72.0,-7.549606,36.648,-7.992,1.037,0,72.0,0.0,1.0,0.0,0.0,1.0,1,1.0,72.0,20.906,1,1.0,0,1.0,0,1.0,0,1.0,0,1.0
2567,'5',72.0,-7.549606,36.648,-7.992,1.037,0,72.0,0.0,1.0,0.0,0.0,1.0,1,1.0,72.0,30.986,1,1.0,0,1.0,0,1.0,0,1.0,0,1.0
2567,'6',72.0,-7.549606,36.648,-7.992,1.037,0,72.0,0.0,1.0,0.0,0.0,1.0,1,1.0,72.0,20.543,1,1.0,0,1.0,0,1.0,0,1.0,0,1.0
2573,'1',155.90486,-34.572425,59.214,-40.032,1.036,0,278.0,0.0,1.0,0.0,0.0,1.0,1,1.0,278.0,124.493,1,1.0,0,1.0,0,1.0,0,1.0,0,1.0
2578,'1',150.0,-16.771527,31.95,-21.6,1.04,0,150.0,0.0,1.0,0.0,0.0,1.0,1,1.0,150.0,35.937,1,1.0,0,1.0,0,1.0,0,1.0,0,1.0
2583,'1',162.58,59.105,165.527,-36.097,1.0385,0,325.2,0.0,1.0,0.0,0.0,1.0,0,1.0,325.2,162.58,1,1.0,0,1.0,0,1.0,0,1.0,0,1.0
2584,'1',66.433,76.659,165.527,-36.097,1.0385,0,325.2,0.0,1.0,0.0,0.0,1.0,0,1.0,325.2,66.433,1,1.0,0,1.0,0,1.0,0,1.0,0,1.0
2588,'1',232.5,-7.2086052,49.523,-33.48,1.04,0,232.5,0.0,1.0,0.0,0.0,1.0,1,1.0,232.5,56.736,1,1.0,0,1.0,0,1.0,0,1.0,0,1.0
2591,'1',80.5,-11.032179,17.146,-11.592,1.0489126,0,80.5,0.0,1.0,0.0,0.0,1.0,1,1.0,80.5,25.199,1,1.0,0,1.0,0,1.0,0,1.0,0,1.0
2594,'1',79.6,-0.45698197,16.955,-11.462,1.0601361,0,79.6,0.0,1.0,0.0,0.0,1.0,1,1.0,79.6,29.942,1,1.0,0,1.0,0,1.0,0,1.0,0,1.0
2598,'1',9.4601509,-2.248,10.307,-2.248,1.0460875,0,20.25,0.0,1.0,0.0,0.0,1.0,1,1.0,20.25,6.698,1,1.0,0,1.0,0,1.0,0,1.0,0,1.0
2598,'2',7.4321509,-2.248,10.307,-2.248,1.0460875,0,20.25,0.0,1.0,0.0,0.0,1.0,1,1.0,20.25,4.163,1,1.0,0,1.0,0,1.0,0,1.0,0,1.0
2604,'1',100.77192,3.5746564,42.6,-28.8,1.048,0,200.0,0.0,1.0,0.0,0.0,1.0,1,1.0,200.0,75.326,1,1.0,0,1.0,0,1.0,0,1.0,0,1.0
2611,'1',111.827,47.81,199.426,-43.49,0.98915572,0,391.8,0.0,1.0,0.0,0.0,1.0,0,1.0,391.8,111.827,1,1.0,0,1.0,0,1.0,0,1.0,0,1.0
2612,'1',188.945,66.451,199.426,-43.49,0.98337118,0,391.8,0.0,1.0,0.0,0.0,1.0,0,1.0,391.8,188.945,1,1.0,0,1.0,0,1.0,0,1.0,0,1.0
2613,'1',101.235,54.641,199.426,-43.49,0.98915572,0,391.8,0.0,1.0,0.0,0.0,1.0,0,1.0,391.8,101.235,1,1.0,0,1.0,0,1.0,0,1.0,0,1.0
2617,'1',2.4322232,-1.0410328,8.448,-1.078,1.0518882,0,22.0,0.0,1.0,0.0,0.0,1.0,1,1.0,22.0,2.376,1,1.0,0,1.0,0,1.0,0,1.0,0,1.0
2617,'2',6.5432232,-1.0410328,8.448,-1.078,1.0518882,0,22.0,0.0,1.0,0.0,0.0,1.0,1,1.0,22.0,6.487,1,1.0,0,1.0,0,1.0,0,1.0,0,1.0
2623,'1',227.696,0.0,307.56,-80.52,1.0425,0,660.0,0.0,1.0,0.0,0.0,1.0,0,1.0,660.0,227.696,1,1.0,0,1.0,0,1.0,0,1.0,0,1.0
2624,'1',113.593,0.0,307.56,-80.52,1.0425,0,660.0,0.0,1.0,0.0,0.0,1.0,0,1.0,660.0,113.593,1,1.0,0,1.0,0,1.0,0,1.0,0,1.0
2625,'1',177.006,0.0,307.56,-80.52,1.0425,0,660.0,0.0,1.0,0.0,0.0,1.0,0,1.0,660.0,177.006,1,1.0,0,1.0,0,1.0,0,1.0,0,1.0
2630,'1',235.59323,-38.747695,61.472,-41.558,1.0405,0,288.6,0.0,1.0,0.0,0.0,1.0,1,1.0,288.6,123.187,1,1.0,0,1.0,0,1.0,0,1.0,0,1.0
2635,'1',241.0,44.390678,51.333,-34.704,1.058,0,241.0,0.0,1.0,0.0,0.0,1.0,1,1.0,241.0,92.743,1,1.0,0,1.0,0,1.0,0,1.0,0,1.0
2638,'1',17.690269,-8.467,12.524,-8.467,1.0465701,0,58.8,0.0,1.0,0.0,0.0,1.0,1,1.0,58.8,7.225,1,1.0,0,1.0,0,1.0,0,1.0,0,1.0
2644,'1',51.979484,35.030553,35.278,-23.85,1.0149688,0,165.63,0.0,1.0,0.0,0.0,1.0,1,1.0,165.625,23.039,1,1.0,0,1.0,0,1.0,0,1.0,0,1.0
2645,'1',80.560284,35.222967,35.278,-23.85,1.0118734,0,165.63,0.0,1.0,0.0,0.0,1.0,1,1.0,165.625,58.765,1,1.0,0,1.0,0,1.0,0,1.0,0,1.0
2646,'1',69.337084,35.157393,35.278,-23.85,1.0113387,0,165.63,0.0,1.0,0.0,0.0,1.0,1,1.0,165.625,44.736,1,1.0,0,1.0,0,1.0,0,1.0,0,1.0
2647,'1',48.752284,-23.85,35.278,-23.85,1.0433083,0,165.63,0.0,1.0,0.0,0.0,1.0,1,1.0,165.625,19.005,1,1.0,0,1.0,0,1.0,0,1.0,0,1.0
2651,'1',62.785373,-16.366691,80.541,-17.564,1.0405,0,158.23,0.0,1.0,0.0,0.0,1.0,1,1.0,158.233,38.418,1,1.0,0,1.0,0,1.0,0,1.0,0,1.0
2652,'1',85.443773,-17.564,80.541,-17.564,1.0440345,0,158.23,0.0,1.0,0.0,0.0,1.0,1,1.0,158.233,66.741,1,1.0,0,1.0,0,1.0,0,1.0,0,1.0
2653,'1',51.728573,-15.307038,80.541,-17.564,1.0405,0,158.23,0.0,1.0,0.0,0.0,1.0,1,1.0,158.233,24.597,1,1.0,0,1.0,0,1.0,0,1.0,0,1.0
2657,'1',126.5,-18.216,26.945,-18.216,1.0307865,0,126.5,0.0,1.0,0.0,0.0,1.0,1,1.0,126.5,50.669,1,1.0,0,1.0,0,1.0,0,1.0,0,1.0
2662,'1',197.0,-8.662185,41.961,-28.368,1.0405,0,197.0,0.0,1.0,0.0,0.0,1.0,1,1.0,197.0,96.368,1,1.0,0,1.0,0,1.0,0,1.0,0,1.0
2665,'1',53.759693,-11.261,16.657,-11.261,1.0627105,0,78.2,0.0,1.0,0.0,0.0,1.0,1,1.0,78.2,27.384,1,1.0,0,1.0,0,1.0,0,1.0,0,1.0
2669,'1',90.523643,17.814927,93.537,-20.398,1.0585,0,183.77,0.0,1.0,0.0,0.0,1.0,1,1.0,183.767,86.15,1,1.0,0,1.0,0,1.0,0,1.0,0,1.0
2670,'1',166.36704,36.677203,93.537,-20.398,1.0585,0,183.77,0.0,1.0,0.0,0.0,1.0,1,1.0,183.767,72.086,1,1.0,0,1.0,0,1.0,0,1.0,0,1.0
2671,'1',125.72164,24.522674,93.537,-20.398,1.0585,0,183.77,0.0,1.0,0.0,0.0,1.0,1,1.0,183.767,21.216,1,1.0,0,1.0,0,1.0,0,1.0,0,1.0
2677,'1',99.138185,33.357136,94.844,-20.683,1.0525,0,186.33,0.0,1.0,0.0,0.0,1.0,1,1.0,186.333,29.779,1,1.0,0,1.0,0,1.0,0,1.0,0,1.0
2678,'1',96.600985,43.576304,94.844,-20.683,1.0525,0,186.33,0.0,1.0,0.0,0.0,1.0,1,1.0,186.333,88.281,1,1.0,0,1.0,0,1.0,0,1.0,0,1.0
2679,'1',121.34219,48.536461,94.844,-20.683,1.0525,0,186.33,0.0,1.0,0.0,0.0,1.0,1,1.0,186.333,69.424,1,1.0,0,1.0,0,1.0,0,1.0,0,1.0
2683,'1',283.2,-40.781,60.322,-40.781,1.0326916,0,283.2,0.0,1.0,0.0,0.0,1.0,1,1.0,283.2,79.964,1,1.0,0,1.0,0,1.0,0,1.0,0,1.0
2688,'1',203.0,26.756146,43.239,-29.232,1.0045,0,203.0,0.0,1.0,0.0,0.0,1.0,1,1.0,203.0,98.9,1,1.0,0,1.0,0,1.0,0,1.0,0,1.0
2691,'1',43.0,18.981157,21.887,-4.773,1.0385,0,43.0,0.0,1.0,0.0,0.0,1.0,1,1.0,43.0,5.001,1,1.0,0,1.0,0,1.0,0,1.0,0,1.0
2692,'1',43.0,-4.4563666,21.887,-4.773,1.0420538,0,43.0,0.0,1.0,0.0,0.0,1.0,1,1.0,43.0,21.482,1,1.0,0,1.0,0,1.0,0,1.0,0,1.0
...
0 / END OF GENERATOR DATA BEGIN BRANCH DATA
1,10,'1',0.0087,0.04508,0.03012,161.0,161.0,161.0,0.0,0.0,0.0,0.0,1,1,0.0,1,1.0,0,1.0,0,1.0,0,1.0
2,5,'1',0.04168,0.15499,0.06378,172.6,172.6,172.6,0.0,0.0,0.0,0.0,1,1,0.0,1,1.0,0,1.0,0,1.0,0,1.0
2,2971,'1',0.0113,0.0609,0.01935,179.1,179.1,179.1,0.0,0.0,0.0,0.0,1,1,0.0,1,1.0,0,1.0,0,1.0,0,1.0
3,32,'1',0.02285,0.1258,0.02312,129.8,129.8,129.8,0.0,0.0,0.0,0.0,1,1,0.0,1,1.0,0,1.0,0,1.0,0,1.0
4,5,'1',0.00021,0.0011,0.0,99999.0,99999.0,99999.0,0.0,0.0,0.0,0.0,1,1,0.0,1,1.0,0,1.0,0,1.0,0,1.0
5,47,'1',0.01779,0.09175,0.1489,168.8,168.8,168.8,0.0,0.0,0.0,0.0,1,1,0.0,1,1.0,0,1.0,0,1.0,0,1.0
6,7,'1',0.01146,0.06161,0.01521,118.9,118.9,118.9,0.0,0.0,0.0,0.0,1,1,0.0,1,1.0,0,1.0,0,1.0,0,1.0
6,3839,'1',0.06146,0.23913,0.02814,132.4,132.4,132.4,0.0,0.0,0.0,0.0,1,1,0.0,1,1.0,0,1.0,0,1.0,0,1.0
7,3142,'1',0.01943,0.08611,0.03098,154.4,154.4,154.4,0.0,0.0,0.0,0.0,1,1,0.0,1,1.0,0,1.0,0,1.0,0,1.0
8,9,'1',0.04045,0.19503,0.02577,143.7,143.7,143.7,0.0,0.0,0.0,0.0,1,1,0.0,1,1.0,0,1.0,0,1.0,0,1.0
8,34,'1',0.03445,0.15102,0.02567,125.9,125.9,125.9,0.0,0.0,0.0,0.0,1,1,0.0,1,1.0,0,1.0,0,1.0,0,1.0
8,2798,'1',0.03757,0.171,0.015,165.0,165.0,165.0,0.0,0.0,0.0,0.0,1,1,0.0,1,1.0,0,1.0,0,1.0,0,1.0
10,11,'1',0.03459,0.13093,0.02825,179.5,179.5,179.5,0.0,0.0,0.0,0.0,1,1,0.0,1,1.0,0,1.0,0,1.0,0,1.0
12,14,'1',0.00024,0.00103,0.0,99999.0,99999.0,99999.0,0.0,0.0,0.0,0.0,1,1,0.0,1,1.0,0,1.0,0,1.0,0,1.0
12,15,'1',0.00028,0.00118,0.0,99999.0,99999.0,99999.0,0.0,0.0,0.0,0.0,1,1,0.0,1,1.0,0,1.0,0,1.0,0,1.0
13,11,'1',0.0115,0.05155,0.00995,186.6,186.6,186.6,0.0,0.0,0.0,0.0,1,1,0.0,1,1.0,0,1.0,0,1.0,0,1.0
13,25,'1',0.03053,0.12823,0.03996,170.2,170.2,170.2,0.0,0.0,0.0,0.0,1,1,0.0,1,1.0,0,1.0,0,1.0,0,1.0
15,2405,'1',0.00382,0.03136,0.07527,564.4,564.4,564.4,0.0,0.0,0.0,0.0,1,1,0.0,1,1.0,0,1.0,0,1.0,0,1.0
15,3118,'1',0.00577,0.05823,0.28363,602.8,602.8,602.8,0.0,0.0,0.0,0.0,1,1,0.0,1,1.0,0,1.0,0,1.0,0,1.0
16,18,'1',0.00029,0.00105,0.0,99999.0,99999.0,99999.0,0.0,0.0,0.0,0.0,1,1,0.0,1,1.0,0,1.0,0,1.0,0,1.0
16,19,'1',0.00021,0.00106,0.0,99999.0,99999.0,99999.0,0.0,0.0,0.0,0.0,1,1,0.0,1,1.0,0,1.0,0,1.0,0,1.0
17,70,'1',0.02482,0.12658,0.04798,148.2,148.2,148.2,0.0,0.0,0.0,0.0,1,1,0.0,1,1.0,0,1.0,0,1.0,0,1.0
19,3259,'1',0.01233,0.10016,0.25445,532.2,532.2,532.2,0.0,0.0,0.0,0.0,1,1,0.0,1,1.0,0,1.0,0,1.0,0,1.0
20,22,'1',0.00021,0.00114,0.0,99999.0,99999.0,99999.0,0.0,0.0,0.0,0.0,1,1,0.0,1,1.0,0,1.0,0,1.0,0,1.0
20,23,'1',0.00028,0.00106,0.0,99999.0,99999.0,99999.0,0.0,0.0,0.0,0.0,1,1,0.0,1,1.0,0,1.0,0,1.0,0,1.0
21,9,'1',0.0449,0.16501,0.01666,108.5,108.5,108.5,0.0,0.0,0.0,0.0,1,1,0.0,1,1.0,0,1.0,0,1.0,0,1.0
22,3615,'1',0.00793,0.06747,0.23868,597.9,597.9,597.9,0.0,0.0,0.0,0.0,1,1,0.0,1,1.0,0,1.0,0,1.0,0,1.0
24,32,'1',0.01064,0.03316,0.00869,147.4,147.4,147.4,0.0,0.0,0.0,0.0,1,1,0.0,1,1.0,0,1.0,0,1.0,0,1.0
25,24,'1',0.00921,0.03545,0.00947,146.1,146.1,146.1,0.0,0.0,0.0,0.0,1,1,0.0,1,1.0,0,1.0,0,1.0,0,1.0
25,43,'1',0.00594,0.0302,0.03786,175.1,175.1,175.1,0.0,0.0,0.0,0.0,1,1,0.0,1,1.0,0,1.0,0,1.0,0,1.0
26,2572,'1',0.0208,0.09668,0.02411,135.6,135.6,135.6,0.0,0.0,0.0,0.0,1,1,0.0,1,1.0,0,1.0,0,1.0,0,1.0
26,3467,'1',0.05134,0.25172,0.03633,160.0,160.0,160.0,0.0,0.0,0.0,0.0,1,1,0.0,1,1.0,0,1.0,0,1.0,0,1.0
27,30,'1',0.00029,0.00101,0.0,99999.0,99999.0,99999.0,0.0,0.0,0.0,0.0,1,1,0.0,1,1.0,0,1.0,0,1.0,0,1.0
27,2585,'1',0.00049,0.00859,1.20744,2730.0,2730.0,2730.0,0.0,0.0,0.0,0.0,1,1,0.0,1,1.0,0,1.0,0,1.0,0,1.0
27,3124,'1',0.001,0.01944,2.12114,2885.3,2885.3,2885.3,0.0,0.0,0.0,0.0,1,1,0.0,1,1.0,0,1.0,0,1.0,0,1.0
28,31,'1',0.0003,0.00103,0.0,99999.0,99999.0,99999.0,0.0,0.0,0.0,0.0,1,1,0.0,1,1.0,0,1.0,0,1.0,0,1.0
29,3557,'1',0.00452,0.02384,0.01438,170.8,170.8,170.8,0.0,0.0,0.0,0.0,1,1,0.0,1,1.0,0,1.0,0,1.0,0,1.0
31,65,'1',0.00329,0.03121,0.15293,513.4,513.4,513.4,0.0,0.0,0.0,0.0,1,1,0.0,1,1.0,0,1.0,0,1.0,0,1.0
31,2574,'1',0.00652,0.0629,0.18163,513.0,513.0,513.0,0.0,0.0,0.0,0.0,1,1,0.0,1,1.0,0,1.0,0,1.0,0,1.0
31,3567,'1',0.00127,0.01143,0.03245,651.5,651.5,651.5,0.0,0.0,0.0,0.0,1,1,0.0,1,1.0,0,1.0,0,1.0,0,1.0
31,3567,'2',0.00127,0.01143,0.03245,651.5,651.5,651.5,0.0,0.0,0.0,0.0,1,1,0.0,1,1.0,0,1.0,0,1.0,0,1.0
32,33,'1',0.00021,0.00116,0.0,99999.0,99999.0,99999.0,0.0,0.0,0.0,0.0,1,1,0.0,1,1.0,0,1.0,0,1.0,0,1.0
32,2282,'1',0.00716,0.03527,0.01736,178.4,178.4,178.4,0.0,0.0,0.0,0.0,1,1,0.0,1,1.0,0,1.0,0,1.0,0,1.0
34,56,'1',0.03264,0.16102,0.02997,134.9,134.9,134.9,0.0,0.0,0.0,0.0,1,1,0.0,1,1.0,0,1.0,0,1.0,0,1.0
35,36,'1',0.00024,0.00114,0.0,99999.0,99999.0,99999.0,0.0,0.0,0.0,0.0,1,1,0.0,1,1.0,0,1.0,0,1.0,0,1.0
35,62,'1',0.01883,0.10742,0.02725,115.3,115.3,115.3,0.0,0.0,0.0,0.0,1,1,0.0,1,1.0,0,1.0,0,1.0,0,1.0
37,39,'1',0.00025,0.00118,0.0,99999.0,99999.0,99999.0,0.0,0.0,0.0,0.0,1,1,0.0,1,1.0,0,1.0,0,1.0,0,1.0
37,2975,'1',0.00926,0.08957,0.19243,584.8,584.8,584.8,0.0,0.0,0.0,0.0,1,1,0.0,1,1.0,0,1.0,0,1.0,0,1.0
38,35,'1',0.01179,0.04912,0.01005,139.0,139.0,139.0,0.0,0.0,0.0,0.0,1,1,0.0,1,1.0,0,1.0,0,1.0,0,1.0
40,54,'1',0.00717,0.03214,0.01168,183.9,183.9,183.9,0.0,0.0,0.0,0.0,1,1,0.0,1,1.0,0,1.0,0,1.0,0,1.0
41,24,'1',0.00554,0.0269,0.01549,152.7,152.7,152.7,0.0,0.0,0.0,0.0,1,1,0.0,1,1.0,0,1.0,0,1.0,0,1.0
42,40,'1',0.00522,0.01499,0.00686,198.7,198.7,198.7,0.0,0.0,0.0,0.0,1,1,0.0,1,1.0,0,1.0,0,1.0,0,1.0
42,2282,'1',0.01068,0.05861,0.01552,200.1,200.1,200.1,0.0,0.0,0.0,0.0,1,1,0.0,1,1.0,0,1.0,0,1.0,0,1.0
43,41,'1',0.00246,0.01272,0.00586,168.0,168.0,168.0,0.0,0.0,0.0,0.0,1,1,0.0,1,1.0,0,1.0,0,1.0,0,1.0
43,3557,'1',0.00614,0.03023,0.00712,164.6,164.6,164.6,0.0,0.0,0.0,0.0,1,1,0.0,1,1.0,0,1.0,0,1.0,0,1.0
44,29,'1',0.00738,0.02468,0.00717,123.9,123.9,123.9,0.0,0.0,0.0,0.0,1,1,0.0,1,1.0,0,1.0,0,1.0,0,1.0
44,45,'1',0.0055,0.0265,0.0033,145.5,145.5,145.5,0.0,0.0,0.0,0.0,1,1,0.0,1,1.0,0,1.0,0,1.0,0,1.0
45,2282,'1',0.0079,0.04148,0.00396,162.4,162.4,162.4,0.0,0.0,0.0,0.0,1,1,0.0,1,1.0,0,1.0,0,1.0,0,1.0
46,38,'1',0.02563,0.14224,0.01306,169.3,169.3,169.3,0.0,0.0,0.0,0.0,1,1,0.0,1,1.0,0,1.0,0,1.0,0,1.0
48,47,'1',0.00865,0.03468,0.02152,166.3,166.3,166.3,0.0,0.0,0.0,0.0,1,1,0.0,1,1.0,0,1.0,0,1.0,0,1.0
48,71,'1',0.03201,0.12189,0.05261,176.6,176.6,176.6,0.0,0.0,0.0,0.0,1,1,0.0,1,1.0,0,1.0,0,1.0,0,1.0
49,50,'1',0.00022,0.00108,0.0,99999.0,99999.0,99999.0,0.0,0.0,0.0,0.0,1,1,0.0,1,1.0,0,1.0,0,1.0,0,1.0
50,86,'1',0.0328,0.16516,0.09333,116.2,116.2,116.2,0.0,0.0,0.0,0.0,1,1,0.0,1,1.0,0,1.0,0,1.0,0,1.0
51,59,'1',0.01464,0.04673,0.00744,114.8,114.8,114.8,0.0,0.0,0.0,0.0,1,1,0.0,1,1.0,0,1.0,0,1.0,0,1.0
52,53,'1',0.00021,0.00103,0.0,99999.0,99999.0,99999.0,0.0,0.0,0.0,0.0,1,1,0.0,1,1.0,0,1.0,0,1.0,0,1.0
53,54,'1',0.00707,0.03381,0.01158,147.3,147.3,147.3,0.0,0.0,0.0,0.0,1,1,0.0,1,1.0,0,1.0,0,1.0,0,1.0
53,59,'1',0.00623,0.0242,0.00374,121.3,121.3,121.3,0.0,0.0,0.0,0.0,1,1,0.0,1,1.0,0,1.0,0,1.0,0,1.0
54,51,'1',0.01384,0.04606,0.00524,145.7,145.7,145.7,0.0,0.0,0.0,0.0,1,1,0.0,1,1.0,0,1.0,0,1.0,0,1.0
54,55,'1',0.00027,0.00106,0.0,99999.0,99999.0,99999.0,0.0,0.0,0.0,0.0,1,1,0.0,1,1.0,0,1.0,0,1.0,0,1.0
56,46,'1',0.04103,0.16139,0.02102,159.3,159.3,159.3,0.0,0.0,0.0,0.0,1,1,0.0,1,1.0,0,1.0,0,1.0,0,1.0
56,57,'1',0.00022,0.00118,0.0,99999.0,99999.0,99999.0,0.0,0.0,0.0,0.0,1,1,0.0,1,1.0,0,1.0,0,1.0,0,1.0
56,96,'1',0.01994,0.09722,0.00985,136.4,136.4,136.4,0.0,0.0,0.0,0.0,1,1,0.0,1,1.0,0,1.0,0,1.0,0,1.0
58,64,'1',0.015,0.07401,0.00725,134.0,134.0,134.0,0.0,0.0,0.0,0.0,1,1,0.0,1,1.0,0,1.0,0,1.0,0,1.0
59,58,'1',0.00557,0.02601,0.00571,109.3,109.3,109.3,0.0,0.0,0.0,0.0,1,1,0.0,1,1.0,0,1.0,0,1.0,0,1.0
60,61,'1',0.0002,0.00106,0.0,99999.0,99999.0,99999.0,0.0,0.0,0.0,0.0,1,1,0.0,1,1.0,0,1.0,0,1.0,0,1.0
60,67,'1',0.00441,0.02151,0.01126,144.1,144.1,144.1,0.0,0.0,0.0,0.0,1,1,0.0,1,1.0,0,1.0,0,1.0,0,1.0
60,77,'1',0.00675,0.04224,0.01573,169.1,169.1,169.1,0.0,0.0,0.0,0.0,1,1,0.0,1,1.0,0,1.0,0,1.0,0,1.0
62,47,'1',0.0085,0.05417,0.06179,188.6,188.6,188.6,0.0,0.0,0.0,0.0,1,1,0.0,1,1.0,0,1.0,0,1.0,0,1.0
62,85,'1',0.01218,0.06348,0.01115,166.7,166.7,166.7,0.0,0.0,0.0,0.0,1,1,0.0,1,1.0,0,1.0,0,1.0,0,1.0
63,65,'1',0.0003,0.00111,0.0,99999.0,99999.0,99999.0,0.0,0.0,0.0,0.0,1,1,0.0,1,1.0,0,1.0,0,1.0,0,1.0
63,66,'1',0.0003,0.00116,0.0,99999.0,99999.0,99999.0,0.0,0.0,0.0,0.0,1,1,0.0,1,1.0,0,1.0,0,1.0,0,1.0
64,53,'1',0.00517,0.02427,0.00753,154.1,154.1,154.1,0.0,0.0,0.0,0.0,1,1,0.0,1,1.0,0,1.0,0,1.0,0,1.0
64,59,'1',0.00458,0.0236,0.00997,156.3,156.3,156.3,0.0,0.0,0.0,0.0,1,1,0.0,1,1.0,0,1.0,0,1.0,0,1.0
64,67,'1',0.00668,0.0258,0.00494,138.5,138.5,138.5,0.0,0.0,0.0,0.0,1,1,0.0,1,1.0,0,1.0,0,1.0,0,1.0
68,69,'1',0.00026,0.00104,0.0,99999.0,99999.0,99999.0,0.0,0.0,0.0,0.0,1,1,0.0,1,1.0,0,1.0,0,1.0,0,1.0
68,3394,'1',0.00964,0.03811,0.00673,120.4,120.4,120.4,0.0,0.0,0.0,0.0,1,1,0.0,1,1.0,0,1.0,0,1.0,0,1.0
70,68,'1',0.00842,0.04011,0.02742,161.6,161.6,161.6,0.0,0.0,0.0,0.0,1,1,0.0,1,1.0,0,1.0,0,1.0,0,1.0
70,2713,'1',0.01477,0.0596,0.01854,162.4,162.4,162.4,0.0,0.0,0.0,0.0,1,1,0.0,1,1.0,0,1.0,0,1.0,0,1.0
72,74,'1',0.00023,0.00109,0.0,99999.0,99999.0,99999.0,0.0,0.0,0.0,0.0,1,1,0.0,1,1.0,0,1.0,0,1.0,0,1.0
72,75,'1',0.00027,0.00118,0.0,99999.0,99999.0,99999.0,0.0,0.0,0.0,0.0,1,1,0.0,1,1.0,0,1.0,0,1.0,0,1.0
73,71,'1',0.0162,0.0528,0.0087,182.0,182.0,182.0,0.0,0.0,0.0,0.0,1,1,0.0,1,1.0,0,1.0,0,1.0,0,1.0
75,3713,'1',0.00519,0.04788,0.20757,615.4,615.4,615.4,0.0,0.0,0.0,0.0,1,1,0.0,1,1.0,0,1.0,0,1.0,0,1.0
76,58,'1',0.01303,0.04777,0.02234,147.7,147.7,147.7,0.0,0.0,0.0,0.0,1,1,0.0,1,1.0,0,1.0,0,1.0,0,1.0
76,77,'1',0.01118,0.05743,0.0095,160.5,160.5,160.5,0.0,0.0,0.0,0.0,1,1,0.0,1,1.0,0,1.0,0,1.0,0,1.0
77,2282,'1',0.01741,0.07702,0.0321,199.3,199.3,199.3,0.0,0.0,0.0,0.0,1,1,0.0,1,1.0,0,1.0,0,1.0,0,1.0
78,68,'1',0.03304,0.12753,0.01506,148.5,148.5,148.5,0.0,0.0,0.0,0.0,1,1,0.0,1,1.0,0,1.0,0,1.0,0,1.0
78,7121,'1',0.03285,0.1673,0.03843,141.0,141.0,141.0,0.0,0.0,0.0,0.0,1,1,0.0,1,1.0,0,1.0,0,1.0,0,1.0
...